
 LIST ALL SELECTED ELEMENTS.  (LIST NODES)
1

 ***** ANSYS - ENGINEERING ANALYSIS SYSTEM  RELEASE 15.0      *****
 ANSYS Academic Teaching Advanced                  
 00203145          VERSION=LINUX x64     15:15:27  APR 01, 2014 CP=     13.160

                                                                               

 
    ELEM MAT TYP REL ESY SEC        NODES
 
       1   3   1   1   0   1   2673  2674  1872   686  3195  3196  3197  3198
                               3199  1856
       2   3   1   1   0   1   2675  2676  2677  2678  3200  3201  3202  3203
                               3204  3205
       3   3   1   1   0   1   2679  2676  2677  2675  3206  3201  3207  3208
                               3200  3202
       4   3   1   1   0   1   2680  2681  2682  1760  3209  3210  3211  3212
                               3213  3214
       5   3   1   1   0   1   2626  2683  2591  2684  3215  3216  2428  3217
                               3218  3219
       6   3   1   1   0   1   2039   654  1939   656  2038  1919  3220  2037
                                655  1918
       7   3   1   1   0   1   2685  2686  2687  2684  3221  3222  3223  3224
                               3225  3226
       8   3   1   1   0   1   2687  2684  2591  2685  3226  3219  3227  3223
                               3224  3228
       9   3   1   1   0   1   2684  2686  2687  2627  3225  3222  3226  3229
                               3230  3231
      10   3   1   1   0   1   2684  2686  2627  2688  3225  3230  3229  3232
                               3233  3234
      11   3   1   1   0   1   2689  1773  2690  2691  3235  3236  3237  3238
                               3239  3240
      12   3   1   1   0   1   2689  2692  1303  1304  3241  3242  3243  3244
                               3245  1217
      13   3   1   1   0   1   2693  2694  2691  2689  3246  3247  3248  3249
                               3250  3238
      14   3   1   1   0   1   2689  1697   230  1696  3251  1635  3252  3253
                               1572  1638
      15   3   1   1   0   1   2689  2693  2694  2692  3249  3246  3250  3241
                               3254  3255
      16   3   1   1   0   1   2695  2696  2697  2698  3256  3257  3258  3259
                               3260  3261
      17   3   1   1   0   1   2588  2587   745  1935  2481  2553  2550  3262
                               3263  1933
      18   3   1   1   0   1   2699  2700  2701  2702  3264  3265  3266  3267
                               3268  3269
      19   3   1   1   0   1   2700  2701  2702  2695  3265  3269  3268  3270
                               3271  3272
      20   3   1   1   0   1   2695  2702  2703  2698  3272  3273  3274  3259
                               3275  3276
      21   3   1   1   0   1   2695  1939  2703  2700  3277  3278  3274  3270
                               3279  3280
      22   3   1   1   0   1   2695  2701  2704  2700  3271  3281  3282  3270
                               3265  3283
      23   3   1   1   0   1   2680  2705  2682  2706  3284  3285  3211  3286
                               3287  3288
      24   3   1   1   0   1   2707  2708  2706  2709  3289  3290  3291  3292
                               3293  3294
      25   3   1   1   0   1   2707  2705  2708  2710  3295  3296  3289  3297
                               3298  3299
1

 ***** ANSYS - ENGINEERING ANALYSIS SYSTEM  RELEASE 15.0      *****
 ANSYS Academic Teaching Advanced                  
 00203145          VERSION=LINUX x64     15:15:27  APR 01, 2014 CP=     13.161

                                                                               

 
    ELEM MAT TYP REL ESY SEC        NODES
 
      26   3   1   1   0   1   2711  2705  2682  2680  3300  3285  3301  3302
                               3284  3211
      27   3   1   1   0   1   2707  2708  2709  2712  3289  3293  3292  3303
                               3304  3305
      28   3   1   1   0   1   2615  1316    79  2713  3306  1270  2495  3307
                               3308  3309
      29   3   1   1   0   1     77  2615  1316    79  2494  3306  1269    78
                               2495  1270
      30   3   1   1   0   1   2713  2714  1316  1327  3310  3311  3308  3312
                               3313  1221
      31   3   1   1   0   1   2713  1322  2715  1327  3314  3315  3316  3312
                               1224  3317
      32   3   1   1   0   1   2713  2643  2714  2716  3318  3319  3310  3320
                               3321  3322
      33   3   1   1   0   1   2716  1315  1322  2713  3323  1248  3324  3320
                               3325  3314
      34   3   1   1   0   1   2717  2716  1315  1322  3326  3323  3327  3328
                               3324  1248
      35   3   1   1   0   1   2718  2209    70  1880  3329  2167  3330  3331
                               3332  1837
      36   3   1   1   0   1   2714  2715  1327  2713  3333  3317  3313  3310
                               3316  3312
      37   3   1   1   0   1   2673  1727  2676  1688  3334  3335  3336  3337
                               1529  3338
      38   3   1   1   0   1   1334  1936    10  1705  3339  1897  1191  3340
                               3341  1343
      39   3   1   1   0   1   2719  2059  2060  2055  3342  1963  3343  3344
                               1960  1956
      40   3   1   1   0   1   2675  2720  1873  1874  3345  3346  3347  3348
                               3349  1829
      41   3   1   1   0   1   2675  1885  2721  1886  3350  3351  3352  3353
                               1796  3354
      42   3   1   1   0   1   2673  1872  2678  1885  3197  3355  3356  3357
                               1812  3358
      43   3   1   1   0   1   2722  2723  2724  2718  3359  3360  3361  3362
                               3363  3364
      44   3   1   1   0   1   2725  2722  2723  2724  3365  3359  3366  3367
                               3361  3360
      45   3   1   1   0   1   2718  2723  2726  2727  3363  3368  3369  3370
                               3371  3372
      46   3   1   1   0   1   2718  2209  2723  2727  3329  3373  3363  3370
                               3374  3371
      47   3   1   1   0   1   2718  2722  1880  1882  3362  3375  3331  3376
                               3377  1821
      48   3   1   1   0   1   2718    70  1881  1880  3330  1836  3378  3331
                               1837  1820
      49   3   1   1   0   1   2727  2718    68  2726  3370  3379  3380  3372
                               3369  3381
      50   3   1   1   0   1   2726  2727  2220    68  3372  3382  3383  3381
                               3380  2100
1

 ***** ANSYS - ENGINEERING ANALYSIS SYSTEM  RELEASE 15.0      *****
 ANSYS Academic Teaching Advanced                  
 00203145          VERSION=LINUX x64     15:15:27  APR 01, 2014 CP=     13.162

                                                                               

 
    ELEM MAT TYP REL ESY SEC        NODES
 
      51   3   1   1   0   1   2718    70    68  1881  3330    69  3379  3378
                               1836  1835
      52   3   1   1   0   1   2728  2683  2590  2729  3384  3385  3386  3387
                               3388  3389
      53   3   1   1   0   1   2728  2625  2730  2589  3390  3391  3392  3393
                               2430  3394
      54   3   1   1   0   1   2729  2731  2625  2728  3395  3396  3397  3387
                               3398  3390
      55   3   1   1   0   1   2732  2733  2734  2735  3399  3400  3401  3402
                               3403  3404
      56   3   1   1   0   1   2736  2737  2738  2739  3405  3406  3407  3408
                               3409  3410
      57   3   1   1   0   1   2740  1308  2731  2728  3411  3412  3413  3414
                               3415  3398
      58   3   1   1   0   1   2728  2740  2741  2729  3414  3416  3417  3387
                               3418  3419
      59   3   1   1   0   1   2742  2743  2744  2745  3420  3421  3422  3423
                               3424  3425
      60   3   1   1   0   1   2742  2746  2747  2748  3426  3427  3428  3429
                               3430  3431
      61   3   1   1   0   1   2749  2750  1050  2742  3432  3433  3434  3435
                               3436  3437
      62   3   1   1   0   1   2040  2751  2039  1938  3438  3439  2004  3440
                               3441  3442
      63   3   1   1   0   1   2742  2752  2753  1050  3443  3444  3445  3437
                               3446  3447
      64   3   1   1   0   1   2742  2749  2752  1050  3435  3448  3443  3437
                               3434  3446
      65   3   1   1   0   1   2742  2750  1050  2744  3436  3433  3437  3422
                               3449  3450
      66   3   1   1   0   1   2063  1889  2220     4  3451  3452  3453  1955
                               1789  2072
      67   3   1   1   0   1   2754  2755  2756  2757  3454  3455  3456  3457
                               3458  3459
      68   3   1   1   0   1   2754  2758  2759  2760  3460  3461  3462  3463
                               3464  3465
      69   3   1   1   0   1   2754  2761  2762  2763  3466  3467  3468  3469
                               3470  3471
      70   3   1   1   0   1   2754  2760  2762  2755  3463  3472  3468  3454
                               3473  3474
      71   3   1   1   0   1   2730   675   673  1154  3475   674  3476  3477
                               1135  1134
      72   3   1   1   0   1   2589   675   673  2730  2548   674  2549  3394
                               3475  3476
      73   3   1   1   0   1   2671   159  1154  2764  3478  1116  3479  3480
                               3481  3482
      74   3   1   1   0   1   2764  2765  1308   161  3483  3484  3485  3486
                               3487  1290
      75   3   1   1   0   1   2766  2226  2752  2230  3488  3489  3490  3491
                               2110  3492
1

 ***** ANSYS - ENGINEERING ANALYSIS SYSTEM  RELEASE 15.0      *****
 ANSYS Academic Teaching Advanced                  
 00203145          VERSION=LINUX x64     15:15:27  APR 01, 2014 CP=     13.162

                                                                               

 
    ELEM MAT TYP REL ESY SEC        NODES
 
      76   3   1   1   0   1   2766  2752  1051  2230  3490  3493  3494  3491
                               3492  3495
      77   3   1   1   0   1   2766  1051   100  2230  3494  1012  3496  3491
                               3495  2109
      78   3   1   1   0   1   2767  2203   808  2202  3497  2193  3498  3499
                               2162  2194
      79   3   1   1   0   1   2766  2768  1050  2769  3500  3501  3502  3503
                               3504  3505
      80   3   1   1   0   1   2766  2752  2226  2770  3490  3489  3488  3506
                               3507  3508
      81   3   1   1   0   1   2766  2768  1046  1050  3500  3509  3510  3502
                               3501  1015
      82   3   1   1   0   1   2669  2771    32  1938  3511  3512  2260  3513
                               3514  1896
      83   3   1   1   0   1   2771   624  2772  2604  3515  3516  3517  3518
                               2518  3519
      84   3   1   1   0   1   2771   622   624  2604  3520   623  3515  3518
                               2519  2518
      85   3   1   1   0   1   2771  2669    32   622  3511  2260  3512  3520
                               2259   621
      86   3   1   1   0   1   2694  2691  2689  2690  3247  3238  3250  3521
                               3240  3237
      87   3   1   1   0   1   2690  2691  1003   982  3240  3522  3523  3524
                               3525   895
      88   3   1   1   0   1   2690  2773   136  1303  3526  3527  3528  3529
                               3530  1287
      89   3   1   1   0   1   2690   994  2773  2774  3531  3532  3526  3533
                               3534  3535
      90   3   1   1   0   1   2690   983  2775  2691  3536  3537  3538  3240
                               3539  3540
      91   3   1   1   0   1   2768  2631  2605  2776  3541  2416  3542  3543
                               3544  3545
      92   3   1   1   0   1   2777  2054  2778  2042  3546  3547  3548  3549
                               1989  3550
      93   3   1   1   0   1   2768  2776  1048  2769  3543  3551  3552  3504
                               3553  3554
      94   3   1   1   0   1   2768  2606  2779  1046  3555  3556  3557  3509
                               3558  3559
      95   3   1   1   0   1   2768  1048  2605   129  3552  3560  3542  3561
                               1033  2517
      96   3   1   1   0   1   2768  2769  1048  1050  3504  3554  3552  3501
                               3505  1021
      97   3   1   1   0   1   2722  2780  1870  2725  3562  3563  3564  3365
                               3565  3566
      98   3   1   1   0   1   2722  2723  2209  2780  3359  3373  3567  3562
                               3568  3569
      99   3   1   1   0   1   2718  2724  2726  2723  3364  3570  3369  3363
                               3360  3368
     100   3   1   1   0   1   2718  1876  2724  1882  3571  3572  3364  3376
                               1774  3573
1

 ***** ANSYS - ENGINEERING ANALYSIS SYSTEM  RELEASE 15.0      *****
 ANSYS Academic Teaching Advanced                  
 00203145          VERSION=LINUX x64     15:15:27  APR 01, 2014 CP=     13.163

                                                                               

 
    ELEM MAT TYP REL ESY SEC        NODES
 
     101   3   1   1   0   1   2781  1737  2704  1730  3574  3575  3576  3577
                               1460  3578
     102   3   1   1   0   1   1705  1936   143  2781  3341  1932  1594  3579
                               3580  3581
     103   3   1   1   0   1    141  1705  1936   143  1593  3341  1931   142
                               1594  1932
     104   3   1   1   0   1   2781  1936   143   145  3580  1932  3581  3582
                               1921   144
     105   3   1   1   0   1   2781  1737  2782  2704  3574  3583  3584  3576
                               3575  3585
     106   3   1   1   0   1   2781  2782  1307  2704  3584  3586  3587  3576
                               3585  3588
     107   3   1   1   0   1   1307  1705  1704  2781  3589  1564  3590  3587
                               3579  3591
     108   3   1   1   0   1   2695  2704  2783  2784  3282  3592  3593  3594
                               3595  3596
     109   3   1   1   0   1   2785  2786  2787  2788  3597  3598  3599  3600
                               3601  3602
     110   3   1   1   0   1    111  1936  1307  2704  1916  3603  1247  3604
                               3605  3588
     111   3   1   1   0   1   2781  1936  1334  1705  3580  3339  3606  3579
                               3341  3340
     112   3   1   1   0   1   2781  1936  1307  1334  3580  3603  3587  3606
                               3339  1188
     113   3   1   1   0   1     33  2053  2789  1940  1947  3607  3608  1895
                               3609  3610
     114   3   1   1   0   1   2696  2698  1879  1887  3260  3611  3612  3613
                               3614  1802
     115   3   1   1   0   1   2742  2750  2746  2749  3436  3615  3426  3435
                               3432  3616
     116   3   1   1   0   1   2790  2742  2753  1047  3617  3445  3618  3619
                               3620  3621
     117   3   1   1   0   1   2750  2746  2749  2791  3615  3616  3432  3622
                               3623  3624
     118   3   1   1   0   1   2750  1048  1049   710  3625  1023  3626  3627
                               1037  1010
     119   3   1   1   0   1   1148   710  1048  2750  1147  1037  3628  3629
                               3627  3625
     120   3   1   1   0   1   2750  2792  2793  2744  3630  3631  3632  3449
                               3633  3634
     121   3   1   1   0   1   2750  1050  2744  1049  3433  3450  3449  3626
                               1020  3635
     122   3   1   1   0   1   2794  2795  1734  1756  3636  3637  3638  3639
                               3640  1433
     123   3   1   1   0   1   2718  2726  2724  2796  3369  3570  3364  3641
                               3642  3643
     124   3   1   1   0   1   2797  2798  2799  2794  3644  3645  3646  3647
                               3648  3649
     125   3   1   1   0   1   2800  2797  2798  2799  3650  3644  3651  3652
                               3646  3645
1

 ***** ANSYS - ENGINEERING ANALYSIS SYSTEM  RELEASE 15.0      *****
 ANSYS Academic Teaching Advanced                  
 00203145          VERSION=LINUX x64     15:15:27  APR 01, 2014 CP=     13.163

                                                                               

 
    ELEM MAT TYP REL ESY SEC        NODES
 
     126   3   1   1   0   1   2801  2211  1709  1710  3653  3654  3655  3656
                               3657  1560
     127   3   1   1   0   1   2794  2802  1734  2795  3658  3659  3638  3636
                               3660  3637
     128   3   1   1   0   1   2794  2799  2802  2795  3649  3661  3658  3636
                               3662  3660
     129   3   1   1   0   1   2794  1700  2802  2803  3663  3664  3658  3665
                               3666  3667
     130   3   1   1   0   1    178  2211  1709   180  2175  3654  1612   179
                               2068  1611
     131   3   1   1   0   1   2785  2043  2786  2804  3668  3669  3597  3670
                               3671  3672
     132   3   1   1   0   1   2785  2805  2788  2806  3673  3674  3600  3675
                               3676  3677
     133   3   1   1   0   1   2687  2807  2808  2592  3678  3679  3680  3681
                               3682  3683
     134   3   1   1   0   1   2809  2685  2810  2807  3684  3685  3686  3687
                               3688  3689
     135   3   1   1   0   1   2687  2685  2591  1156  3223  3228  3227  3690
                               3691  3692
     136   3   1   1   0   1   2687  2685  1156  2811  3223  3691  3690  3693
                               3694  3695
     137   3   1   1   0   1   1694  1723  1744  2812  1520  1461  1342  3696
                               3697  3698
     138   3   1   1   0   1   1722  2813  1743  2812  3699  3700  1418  3701
                               3702  3703
     139   3   1   1   0   1   2812  1723  1744  1722  3697  1461  3698  3701
                               1482  1449
     140   3   1   1   0   1   2812  2814  2815  2816  3704  3705  3706  3707
                               3708  3709
     141   3   1   1   0   1   2812  2814  1743  1713  3704  3710  3703  3711
                               3712  1491
     142   3   1   1   0   1   2817  2818  2767  2819  3713  3714  3715  3716
                               3717  3718
     143   3   1   1   0   1   2817  2221  2820  2821  3719  3720  3721  3722
                               3723  3724
     144   3   1   1   0   1   2817  2821  2818  2822  3722  3725  3713  3726
                               3727  3728
     145   3   1   1   0   1   2817  2823  2222  2822  3729  3730  3731  3726
                               3732  3733
     146   3   1   1   0   1   2817  2823  2818  2819  3729  3734  3713  3716
                               3735  3717
     147   3   1   1   0   1   2817  2823  2216  2222  3729  3736  3737  3731
                               3730  2133
     148   3   1   1   0   1   2717  2716  2824  2825  3326  3738  3739  3740
                               3741  3742
     149   3   1   1   0   1   2717  2642  2716  2825  3743  3744  3326  3740
                               3745  3741
     150   3   1   1   0   1    182   180  1708  2210   181  1614  1613  2177
                               2178  3746
1

 ***** ANSYS - ENGINEERING ANALYSIS SYSTEM  RELEASE 15.0      *****
 ANSYS Academic Teaching Advanced                  
 00203145          VERSION=LINUX x64     15:15:27  APR 01, 2014 CP=     13.164

                                                                               

 
    ELEM MAT TYP REL ESY SEC        NODES
 
     151   3   1   1   0   1   1322  2716  2824  2717  3324  3738  3747  3328
                               3326  3739
     152   3   1   1   0   1   2717  1313  2613  2826  3748  3749  3750  3751
                               3752  3753
     153   3   1   1   0   1   1314  2717  1313  2613  3754  3748  1262  3755
                               3750  3749
     154   3   1   1   0   1   2827  2828  2829  2830  3756  3757  3758  3759
                               3760  3761
     155   3   1   1   0   1   2827  2831  2832  2833  3762  3763  3764  3765
                               3766  3767
     156   3   1   1   0   1   2827  2831  2834  2676  3762  3768  3769  3770
                               3771  3772
     157   3   1   1   0   1   2827  2676  2835  2836  3770  3773  3774  3775
                               3776  3777
     158   3   1   1   0   1   2827  2834  2828  2676  3769  3778  3756  3770
                               3772  3779
     159   3   1   1   0   1   2837  2827  2834  2828  3780  3769  3781  3782
                               3756  3778
     160   3   1   1   0   1   2838  2826  2641  2612  3783  3784  3785  3786
                               3787  2391
     161   3   1   1   0   1   2838  2640  2826  2839  3788  3789  3783  3790
                               3791  3792
     162   3   1   1   0   1   2840  2841  2839  2838  3793  3794  3795  3796
                               3797  3790
     163   3   1   1   0   1   2842  2840  2841  2839  3798  3793  3799  3800
                               3795  3794
     164   3   1   1   0   1   2838  2840  2611  2640  3796  3801  3802  3788
                               3803  2393
     165   3   1   1   0   1   2838  2841    85  2611  3797  3804  3805  3802
                               3806  2502
     166   3   1   1   0   1   2838  1313  2612    85  3807  3808  3786  3805
                               1276  2501
     167   3   1   1   0   1   2843  2833  2844  2759  3809  3810  3811  3812
                               3813  3814
     168   3   1   1   0   1   2845  2846  2757  2847  3815  3816  3817  3818
                               3819  3820
     169   3   1   1   0   1   2759  2831  2843  2833  3821  3822  3812  3813
                               3766  3809
     170   3   1   1   0   1   2760  2758  2759  2848  3464  3461  3465  3823
                               3824  3825
     171   3   1   1   0   1   2760  2759  2844  2848  3465  3814  3826  3823
                               3825  3827
     172   3   1   1   0   1   2759  2760  2849  2762  3465  3828  3829  3830
                               3472  3831
     173   3   1   1   0   1   2849  2843  2798  2844  3832  3833  3834  3835
                               3811  3836
     174   3   1   1   0   1   2850  2843  2798  2849  3837  3833  3838  3839
                               3832  3834
     175   3   1   1   0   1   2851  2763  2852  2761  3840  3841  3842  3843
                               3470  3844
1

 ***** ANSYS - ENGINEERING ANALYSIS SYSTEM  RELEASE 15.0      *****
 ANSYS Academic Teaching Advanced                  
 00203145          VERSION=LINUX x64     15:15:27  APR 01, 2014 CP=     13.164

                                                                               

 
    ELEM MAT TYP REL ESY SEC        NODES
 
     176   3   1   1   0   1    986  2853  2854   999  3845  3846  3847   923
                               3848  3849
     177   3   1   1   0   1   2851  2855  2856  2857  3850  3851  3852  3853
                               3854  3855
     178   3   1   1   0   1   2855  2856  2858  2851  3851  3856  3857  3850
                               3852  3858
     179   3   1   1   0   1   2682  1760  1740  1759  3214  1422  3859  3860
                               1406  1425
     180   3   1   1   0   1   2859  2851  2754  2763  3861  3862  3863  3864
                               3840  3469
     181   3   1   1   0   1   2851  2860  2763  2859  3865  3866  3840  3861
                               3867  3864
     182   3   1   1   0   1   2861  2862  2863  2864  3868  3869  3870  3871
                               3872  3873
     183   3   1   1   0   1   2861  2865  2866  2867  3874  3875  3876  3877
                               3878  3879
     184   3   1   1   0   1   2868  2712  2866  2861  3880  3881  3882  3883
                               3884  3876
     185   3   1   1   0   1   2868  2861  2867  2869  3883  3877  3885  3886
                               3887  3888
     186   3   1   1   0   1   2870  2871  2872  2873  3889  3890  3891  3892
                               3893  3894
     187   3   1   1   0   1   2870  2818  2872  2874  3895  3896  3891  3897
                               3898  3899
     188   3   1   1   0   1   2875  2823  2876  2874  3900  3901  3902  3903
                               3904  3905
     189   3   1   1   0   1   2823  2876  2874  2870  3901  3905  3904  3906
                               3907  3897
     190   3   1   1   0   1   2870  2819  2873  2818  3908  3909  3892  3895
                               3717  3910
     191   3   1   1   0   1   2870  2871  2205  2876  3889  3911  3912  3907
                               3913  3914
     192   3   1   1   0   1   2823  2819  2217  2870  3735  3915  3916  3906
                               3908  3917
     193   3   1   1   0   1   2877  2654  2668  2667  3918  2234  3919  3920
                               2279  2265
     194   3   1   1   0   1   2878  2879  2880  2881  3921  3922  3923  3924
                               3925  3926
     195   3   1   1   0   1   2858  2668  2658  2667  3927  2275  3928  3929
                               2265  2274
     196   3   1   1   0   1   2878  2875  2882  2883  3930  3931  3932  3933
                               3934  3935
     197   3   1   1   0   1   2878  2884  2885  2748  3936  3937  3938  3939
                               3940  3941
     198   3   1   1   0   1   2878  2885  2886  2881  3938  3942  3943  3924
                               3944  3945
     199   3   1   1   0   1   2878  2887  2888  2889  3946  3947  3948  3949
                               3950  3951
     200   3   1   1   0   1   2878  2748  2887  2889  3939  3952  3946  3949
                               3953  3950
1

 ***** ANSYS - ENGINEERING ANALYSIS SYSTEM  RELEASE 15.0      *****
 ANSYS Academic Teaching Advanced                  
 00203145          VERSION=LINUX x64     15:15:27  APR 01, 2014 CP=     13.165

                                                                               

 
    ELEM MAT TYP REL ESY SEC        NODES
 
     201   3   1   1   0   1   2853   998   986  2890  3954   926  3845  3955
                               3956  3957
     202   3   1   1   0   1   2891  2892  2893  2894  3958  3959  3960  3961
                               3962  3963
     203   3   1   1   0   1    999   998   986  2853   909   926   923  3848
                               3954  3845
     204   3   1   1   0   1   2895  2853   999  2896  3964  3848  3965  3966
                               3967  3968
     205   3   1   1   0   1   2895  2897   999   991  3969  3970  3965  3971
                               3972   917
     206   3   1   1   0   1   2895  2898  2899  2897  3973  3974  3975  3969
                               3976  3977
     207   3   1   1   0   1   2895  2898  2897   991  3973  3976  3969  3971
                               3978  3972
     208   3   1   1   0   1   2900  2901  2048  2600  3979  3980  3981  3982
                               3983  3984
     209   3   1   1   0   1   2815  2748  2816  2884  3985  3986  3709  3987
                               3940  3988
     210   3   1   1   0   1   2815  2229  2884  2212  3989  3990  3987  3991
                               2089  3992
     211   3   1   1   0   1    825   827  1680   985   826  1670  1669   969
                                968  3993
     212   3   1   1   0   1   2815  2882  2753  2748  3994  3995  3996  3985
                               3997  3998
     213   3   1   1   0   1   2815  2902  2816  2753  3999  4000  3709  3996
                               4001  4002
     214   3   1   1   0   1   2812  2815  2213  2902  3706  4003  4004  4005
                               3999  4006
     215   3   1   1   0   1   2815  2753  2882  2228  3996  3995  3994  4007
                               4008  4009
     216   3   1   1   0   1   2862  2903  2879  2880  4010  4011  4012  4013
                               4014  3922
     217   3   1   1   0   1   2861  2862  2904  2905  3868  4015  4016  4017
                               4018  4019
     218   3   1   1   0   1   2862  2906  2880  2881  4020  4021  4013  4022
                               4023  3926
     219   3   1   1   0   1   2862  2906  2904  2905  4020  4024  4015  4018
                               4025  4019
     220   3   1   1   0   1   2862  2907  2864  2908  4026  4027  3872  4028
                               4029  4030
     221   3   1   1   0   1   2909  2910  2911  2912  4031  4032  4033  4034
                               4035  4036
     222   3   1   1   0   1   2913  2914  2915  2813  4037  4038  4039  4040
                               4041  4042
     223   3   1   1   0   1   2813  2913  2816  1722  4040  4043  4044  3699
                               4045  4046
     224   3   1   1   0   1   1890     5  2209    72  1785  2071  4047  1784
                                 73  2168
     225   3   1   1   0   1   2913  2916  2790  1723  4048  4049  4050  4051
                               4052  4053
1

 ***** ANSYS - ENGINEERING ANALYSIS SYSTEM  RELEASE 15.0      *****
 ANSYS Academic Teaching Advanced                  
 00203145          VERSION=LINUX x64     15:15:27  APR 01, 2014 CP=     13.165

                                                                               

 
    ELEM MAT TYP REL ESY SEC        NODES
 
     226   3   1   1   0   1   2913  2854   821  1682  4054  4055  4056  4057
                               4058  1665
     227   3   1   1   0   1   2913  2915  2854  1682  4039  4059  4054  4057
                               4060  4058
     228   3   1   1   0   1   2917  2918  2919  2920  4061  4062  4063  4064
                               4065  4066
     229   3   1   1   0   1   2918  2921  2922  2923  4067  4068  4069  4070
                               4071  4072
     230   3   1   1   0   1   2918  2920  2924  2925  4065  4073  4074  4075
                               4076  4077
     231   3   1   1   0   1   2918  2760  2919  2920  4078  4079  4062  4065
                               4080  4066
     232   3   1   1   0   1   2918  2921  2755  2926  4067  4081  4082  4083
                               4084  4085
     233   3   1   1   0   1   2826  2927  2825  2928  4086  4087  4088  4089
                               4090  4091
     234   3   1   1   0   1   2826  2825  2927  2656  4088  4087  4086  4092
                               4093  4094
     235   3   1   1   0   1   2826  2825  2641  2613  4088  4095  3784  3753
                               4096  2390
     236   3   1   1   0   1   2838  2640  2839  2840  3788  3791  3790  3796
                               3803  3795
     237   3   1   1   0   1   2826  2825  2656  2641  4088  4093  4092  3784
                               4095  2315
     238   3   1   1   0   1   2929  1768  2930  1764  4097  4098  4099  4100
                               1367  4101
     239   3   1   1   0   1   2588    77  1316    75  2493  1269  4102  2492
                                 76  1268
     240   3   1   1   0   1   2929  2931  2932  2868  4103  4104  4105  4106
                               4107  4108
     241   3   1   1   0   1   2929  1768  2933  2711  4097  4109  4110  4111
                               4112  4113
     242   3   1   1   0   1   2867  2929  2868  2931  4114  4106  3885  4115
                               4103  4107
     243   3   1   1   0   1   2929  2933  2934  2711  4110  4116  4117  4111
                               4113  4118
     244   3   1   1   0   1   2865  2935  2936  2937  4119  4120  4121  4122
                               4123  4124
     245   3   1   1   0   1   2802  1701  1734  1735  4125  1511  3659  4126
                               1508  1472
     246   3   1   1   0   1   2861  2862  2864  2904  3868  3872  3871  4016
                               4015  4127
     247   3   1   1   0   1   2861  2865  2904  2866  3874  4128  4016  3876
                               3875  4129
     248   3   1   1   0   1   2861  2938  2865  2867  4130  4131  3874  3877
                               4132  3878
     249   3   1   1   0   1   1333     6  1935  2588  1195  1898  4133  4134
                               2239  3262
     250   3   1   1   0   1   2938  2935  2939  2904  4135  4136  4137  4138
                               4139  4140
1

 ***** ANSYS - ENGINEERING ANALYSIS SYSTEM  RELEASE 15.0      *****
 ANSYS Academic Teaching Advanced                  
 00203145          VERSION=LINUX x64     15:15:27  APR 01, 2014 CP=     13.166

                                                                               

 
    ELEM MAT TYP REL ESY SEC        NODES
 
     251   3   1   1   0   1   2865  2937  2866  2867  4122  4141  3875  3878
                               4142  3879
     252   3   1   1   0   1   2865  2940  2866  2937  4143  4144  3875  4122
                               4145  4141
     253   3   1   1   0   1   2941  2708  2942  2943  4146  4147  4148  4149
                               4150  4151
     254   3   1   1   0   1   2708  2710  2944  2945  3299  4152  4153  4154
                               4155  4156
     255   3   1   1   0   1   2707  2705  2710  2930  3295  3298  3297  4157
                               4158  4159
     256   3   1   1   0   1   2708  2705  2706  2943  3296  3287  3290  4150
                               4160  4161
     257   3   1   1   0   1   2709  2943  2942  2708  4162  4151  4163  3293
                               4150  4147
     258   3   1   1   0   1   2588   743  1935   745  2551  1934  3262  2550
                                744  1933
     259   3   1   1   0   1   2708  2946  2944  2942  4164  4165  4153  4147
                               4166  4167
     260   3   1   1   0   1   2708  2821  2946  2942  4168  4169  4164  4147
                               4170  4166
     261   3   1   1   0   1   2708  2821  2908  2946  4168  4171  4172  4164
                               4169  4173
     262   3   1   1   0   1   2947  2948  2634  2949  4174  4175  4176  4177
                               4178  4179
     263   3   1   1   0   1   2947  2900  2950  2600  4180  4181  4182  4183
                               3982  4184
     264   3   1   1   0   1   2947  2900  2719  2951  4180  4185  4186  4187
                               4188  4189
     265   3   1   1   0   1   2947  2900  2951  2952  4180  4188  4187  4190
                               4191  4192
     266   3   1   1   0   1   2947  2719  2900  2901  4186  4185  4180  4193
                               4194  3979
     267   3   1   1   0   1   2947  2900  2952  2950  4180  4191  4190  4182
                               4181  4195
     268   3   1   1   0   1   2710  2941  2708  2942  4196  4146  3299  4197
                               4148  4147
     269   3   1   1   0   1   2854  1682   823   821  4058  1666  4198  4055
                               1665   822
     270   3   1   1   0   1   1738  2705  1750  2941  4199  4200  1428  4201
                               4202  4203
     271   3   1   1   0   1   2710  2944  2953  2723  4152  4204  4205  4206
                               4207  4208
     272   3   1   1   0   1   2710  2723  2954  2725  4206  4209  4210  4211
                               3366  4212
     273   3   1   1   0   1   2707  2930  2710  2945  4157  4159  3297  4213
                               4214  4155
     274   3   1   1   0   1   2710  2723  2725  2955  4206  3366  4211  4215
                               4216  4217
     275   3   1   1   0   1   2956  2891  2892  2893  4218  3958  4219  4220
                               3960  3959
1

 ***** ANSYS - ENGINEERING ANALYSIS SYSTEM  RELEASE 15.0      *****
 ANSYS Academic Teaching Advanced                  
 00203145          VERSION=LINUX x64     15:15:27  APR 01, 2014 CP=     13.166

                                                                               

 
    ELEM MAT TYP REL ESY SEC        NODES
 
     276   3   1   1   0   1   2956  2677  2721  2957  4221  4222  4223  4224
                               4225  4226
     277   3   1   1   0   1   2956  2958  2892  2959  4227  4228  4219  4229
                               4230  4231
     278   3   1   1   0   1   2956  2721  2891  2960  4223  4232  4218  4233
                               4234  4235
     279   3   1   1   0   1   2756  2846  2856  2961  4236  4237  4238  4239
                               4240  4241
     280   3   1   1   0   1   2962  2856  2729  2846  4242  4243  4244  4245
                               4237  4246
     281   3   1   1   0   1   2854  2853   986  2963  3846  3845  3847  4247
                               4248  4249
     282   3   1   1   0   1   2657  2729  2663  2962  4250  4251  2277  4252
                               4244  4253
     283   3   1   1   0   1   2964  2663  2965  2966  4254  4255  4256  4257
                               4258  4259
     284   3   1   1   0   1   2665  2663  2965  2964  2261  4255  4260  4261
                               4254  4256
     285   3   1   1   0   1   2964  2962  2858  2668  4262  4263  4264  4265
                               4266  3927
     286   3   1   1   0   1   2962  2657  2858  2668  4252  4267  4263  4266
                               2276  3927
     287   3   1   1   0   1   2758  2967  2968  2969  4268  4269  4270  4271
                               4272  4273
     288   3   1   1   0   1   2970  2905  2971  2906  4274  4275  4276  4277
                               4025  4278
     289   3   1   1   0   1   2972  2938  2939  2973  4279  4137  4280  4281
                               4282  4283
     290   3   1   1   0   1   2973  2906  2974  2972  4284  4285  4286  4281
                               4287  4288
     291   3   1   1   0   1   2975  2906  2974  2973  4289  4285  4290  4291
                               4284  4286
     292   3   1   1   0   1   2906  2975  2974  2810  4289  4290  4285  4292
                               4293  4294
     293   3   1   1   0   1   2906  2905  2909  2970  4025  4295  4296  4277
                               4274  4297
     294   3   1   1   0   1   2906  2973  2881  2904  4284  4298  4023  4024
                               4299  4300
     295   3   1   1   0   1   2956  2958  2832  2892  4227  4301  4302  4219
                               4228  4303
     296   3   1   1   0   1   2956  2892  2891  2959  4219  3958  4218  4229
                               4231  4304
     297   3   1   1   0   1   2956  2832  2958  2836  4302  4301  4227  4305
                               4306  4307
     298   3   1   1   0   1   2958  2832  2892  2976  4301  4303  4228  4308
                               4309  4310
     299   3   1   1   0   1   2958  2976  2892  2977  4308  4310  4228  4311
                               4312  4313
     300   3   1   1   0   1   2958  2892  2959  2977  4228  4231  4230  4311
                               4313  4314
1

 ***** ANSYS - ENGINEERING ANALYSIS SYSTEM  RELEASE 15.0      *****
 ANSYS Academic Teaching Advanced                  
 00203145          VERSION=LINUX x64     15:15:27  APR 01, 2014 CP=     13.167

                                                                               

 
    ELEM MAT TYP REL ESY SEC        NODES
 
     301   3   1   1   0   1   2958  2836  2835  2678  4307  3777  4315  4316
                               4317  4318
     302   3   1   1   0   1   2817  2822  2818  2823  3726  3728  3713  3729
                               3732  3734
     303   3   1   1   0   1   2978  2822  2874  2818  4319  4320  4321  4322
                               3728  3898
     304   3   1   1   0   1   2817  2820  2215  2767  3721  4323  4324  3715
                               4325  4326
     305   3   1   1   0   1   2817  2821  2822  2221  3722  3727  3726  3719
                               3723  4327
     306   3   1   1   0   1   2728  2590  2730  2625  3386  4328  3392  3390
                               2431  3391
     307   3   1   1   0   1   2728  2741  2765  2979  3417  4329  4330  4331
                               4332  4333
     308   3   1   1   0   1   2728  2764  2589  2730  4334  4335  3393  3392
                               4336  3394
     309   3   1   1   0   1   2683  2728  2730  2979  3384  3392  4337  4338
                               4331  4339
     310   3   1   1   0   1   2683  2685  2590  2591  4340  4341  3385  3216
                               3228  2478
     311   3   1   1   0   1   2684  2683  2591  2685  3218  3216  3219  3224
                               4340  3228
     312   3   1   1   0   1   2683  2979  2738  2741  4338  4342  4343  4344
                               4332  4345
     313   3   1   1   0   1   2765  2979  2980  2730  4333  4346  4347  4348
                               4339  4349
     314   3   1   1   0   1   2683  2979  2981  2739  4338  4350  4351  4352
                               4353  4354
     315   3   1   1   0   1   2683  2980  2981  2979  4355  4356  4351  4338
                               4346  4350
     316   3   1   1   0   1   2787  2789   641  2044  4357  4358  4359  4360
                               4361  2028
     317   3   1   1   0   1   2787  2043   645  2786  4362  2029  4363  3598
                               3669  4364
     318   3   1   1   0   1   2788  2698  2982  2787  4365  4366  4367  3602
                               4368  4369
     319   3   1   1   0   1   2787  2788  2698  2789  3602  4365  4368  4357
                               4370  4371
     320   3   1   1   0   1   2787   641  2789  1879  4359  4358  4357  4372
                               1839  4373
     321   3   1   1   0   1    643  2787  2043   645  4374  4362  2030   644
                               4363  2029
     322   3   1   1   0   1   2787  2786   645  1878  3598  4364  4363  4375
                               4376  1842
     323   3   1   1   0   1   2787  2983  2788  2786  4377  4378  3602  3598
                               4379  3601
     324   3   1   1   0   1   2913  1683  1682   821  4380  1586  4057  4056
                               1664  1665
     325   3   1   1   0   1   2831  2677  2732  2679  4381  4382  4383  4384
                               3207  4385
1

 ***** ANSYS - ENGINEERING ANALYSIS SYSTEM  RELEASE 15.0      *****
 ANSYS Academic Teaching Advanced                  
 00203145          VERSION=LINUX x64     15:15:27  APR 01, 2014 CP=     13.168

                                                                               

 
    ELEM MAT TYP REL ESY SEC        NODES
 
     326   3   1   1   0   1   2831  2677  2679  2676  4381  3207  4384  3771
                               3201  3206
     327   3   1   1   0   1   2831  2732  2677  2957  4383  4382  4381  4386
                               4387  4225
     328   3   1   1   0   1   2831  2957  2832  2984  4386  4388  3763  4389
                               4390  4391
     329   3   1   1   0   1   2693  2775  2985  2986  4392  4393  4394  4395
                               4396  4397
     330   3   1   1   0   1   2689  1303  2692  2694  3243  3242  3241  3250
                               4398  3255
     331   3   1   1   0   1   2693  2919  2987  2694  4399  4400  4401  3246
                               4402  4403
     332   3   1   1   0   1   2693  2691  2986  1678  3248  4404  4395  4405
                               4406  4407
     333   3   1   1   0   1   2693  1677  2691  1678  4408  4409  3248  4405
                               1591  4406
     334   3   1   1   0   1   2693  2988  1745  1678  4410  4411  4412  4405
                               4413  1341
     335   3   1   1   0   1   2693  2775  2691  2694  4392  3540  3248  3246
                               4414  3247
     336   3   1   1   0   1   2713  2714  2643  2615  3310  3319  3318  3307
                               4415  2386
     337   3   1   1   0   1   2714  2587  2588  1935  4416  2481  4417  4418
                               3263  3262
     338   3   1   1   0   1    109  2714  2989  2715  4419  4420  4421  4422
                               3333  4423
     339   3   1   1   0   1   2714  2716  2990  2715  3322  4424  4425  3333
                               4426  4427
     340   3   1   1   0   1   2714  2588  2615  1316  4417  2452  4415  3311
                               4102  3306
     341   3   1   1   0   1   2715   109  1942  2989  4422  1904  4428  4423
                               4421  4429
     342   3   1   1   0   1    109  2715  1327  2714  4422  3317  1199  4419
                               3333  3313
     343   3   1   1   0   1   2713  2643  2716  2614  3318  3321  3320  4430
                               2387  4431
     344   3   1   1   0   1   2713    79  2614  1315  3309  2496  4430  3325
                               1271  4432
     345   3   1   1   0   1   1693   370  2991   368  1644  4433  4434  1643
                                369  4435
     346   3   1   1   0   1   2695  2696  2992  2697  3256  4436  4437  3258
                               3257  4438
     347   3   1   1   0   1   2695  2696  1937  2992  3256  4439  4440  4437
                               4436  4441
     348   3   1   1   0   1   2703  2696  1940  2695  4442  4443  4444  3274
                               3256  4445
     349   3   1   1   0   1   2786  2993  2055  2042  4446  4447  4448  4449
                               4450  1986
     350   3   1   1   0   1   1940  2695  1939  2703  4445  3277  1910  4444
                               3274  3278
1

 ***** ANSYS - ENGINEERING ANALYSIS SYSTEM  RELEASE 15.0      *****
 ANSYS Academic Teaching Advanced                  
 00203145          VERSION=LINUX x64     15:15:27  APR 01, 2014 CP=     13.168

                                                                               

 
    ELEM MAT TYP REL ESY SEC        NODES
 
     351   3   1   1   0   1   2695  2696  2698  2703  3256  3260  3259  3274
                               4442  3276
     352   3   1   1   0   1   2695  1937  2784  2992  4440  4451  3594  4437
                               4441  4452
     353   3   1   1   0   1   1867  1937  1868  2992  4453  4454  1834  4455
                               4441  4456
     354   3   1   1   0   1   1709   178  1710  2211  1612  1609  1560  3654
                               2175  3657
     355   3   1   1   0   1   2994  2995  2577  2617  4457  4458  4459  4460
                               4461  2449
     356   3   1   1   0   1   2994  2996  2995  2645  4462  4463  4457  4464
                               4465  4466
     357   3   1   1   0   1   2818  2978  2996  2997  4322  4467  4468  4469
                               4470  4471
     358   3   1   1   0   1   2818  2994  2767  2997  4472  4473  3714  4469
                               4474  4475
     359   3   1   1   0   1   2994  2820  2767  2214  4476  4325  4473  4477
                               4478  4479
     360   3   1   1   0   1   2913  2916  2998  2790  4048  4480  4481  4050
                               4049  4482
     361   3   1   1   0   1   2802  1305  1306  1332  4483  1215  4484  4485
                               1203  1201
     362   3   1   1   0   1   2916  1047  2790  2991  4486  3619  4049  4487
                               4488  4489
     363   3   1   1   0   1   2916   821   819  1683  4490   820  4491  4492
                               1664  1663
     364   3   1   1   0   1   2916   980   819   988  4493   960  4491  4494
                                940   963
     365   3   1   1   0   1   2802  2803  1305  2799  3667  4495  4483  3661
                               4496  4497
     366   3   1   1   0   1   2802   222  1700  1701  4498  1630  3664  4125
                               1627  1568
     367   3   1   1   0   1   2802  1700   222  1305  3664  1630  4498  4483
                               4499  1298
     368   3   1   1   0   1   2710  2941  2942  2723  4196  4148  4197  4206
                               4500  4501
     369   3   1   1   0   1   2801  1740  1741  1710  4502  1465  4503  3656
                               1497  1494
     370   3   1   1   0   1   1760  2680  1759  2682  3212  4504  1406  3214
                               3211  3860
     371   3   1   1   0   1   2681  2682  1760  2801  3210  3214  3213  4505
                               4506  4507
     372   3   1   1   0   1   2680  2706  2682  2999  3286  3288  3211  4508
                               4509  4510
     373   3   1   1   0   1   2907  2863  2864  2712  4511  3873  4027  4512
                               4513  4514
     374   3   1   1   0   1   2680  2682  2711  1759  3211  3301  3302  4504
                               3860  4515
     375   3   1   1   0   1   2680  3000  3001  2681  4516  4517  4518  3209
                               4519  4520
1

 ***** ANSYS - ENGINEERING ANALYSIS SYSTEM  RELEASE 15.0      *****
 ANSYS Academic Teaching Advanced                  
 00203145          VERSION=LINUX x64     15:15:27  APR 01, 2014 CP=     13.169

                                                                               

 
    ELEM MAT TYP REL ESY SEC        NODES
 
     376   3   1   1   0   1   2910  3002  3003  2996  4521  4522  4523  4524
                               4525  4526
     377   3   1   1   0   1   2941  1707  1724  1738  4527  1502  4528  4201
                               1500  1468
     378   3   1   1   0   1   3004  3005  2908  2910  4529  4530  4531  4532
                               4533  4534
     379   3   1   1   0   1   3006  1170  1171  1165  4535  1070  4536  4537
                               1067  1075
     380   3   1   1   0   1   2910  3007  2996  2978  4538  4539  4524  4540
                               4541  4467
     381   3   1   1   0   1   2910  3005  3003  3008  4533  4542  4523  4543
                               4544  4545
     382   3   1   1   0   1   2910  3004  3008  2911  4532  4546  4543  4032
                               4547  4548
     383   3   1   1   0   1   2225  2709  2943  2942  4549  4162  4550  4551
                               4163  4151
     384   3   1   1   0   1   2973  2939  2899  3009  4283  4552  4553  4554
                               4555  4556
     385   3   1   1   0   1   2704  1937  1941  1936  4557  1900  4558  3605
                               1911  1906
     386   3   1   1   0   1   2973  3010  2975  2888  4559  4560  4291  4561
                               4562  4563
     387   3   1   1   0   1   2973  2939  3009  3011  4283  4555  4554  4564
                               4565  4566
     388   3   1   1   0   1   2973  2975  3010  3012  4291  4560  4559  4567
                               4568  4569
     389   3   1   1   0   1   2682  2705  1739  2706  3285  4570  4571  3288
                               3287  4572
     390   3   1   1   0   1   2706  2707  2680  2705  3291  4573  3286  3287
                               3295  3284
     391   3   1   1   0   1   2682  1709  2706  1739  4574  4575  3288  4571
                               1499  4572
     392   3   1   1   0   1   2999  2682  2681  2801  4510  3210  4576  4577
                               4506  4505
     393   3   1   1   0   1   2682  1760  2801  1740  3214  4507  4506  3859
                               1422  4502
     394   3   1   1   0   1   3000  1760  2680  1759  4578  3212  4516  4579
                               1406  4504
     395   3   1   1   0   1   2682  1709  2801  2706  4574  3655  4506  3288
                               4575  4580
     396   3   1   1   0   1   2873  2819   806  2579  3909  4581  4582  4583
                               4584  2568
     397   3   1   1   0   1   2873  2872  2619  2620  3894  4585  4586  4587
                               4588  2382
     398   3   1   1   0   1   2873  2871  2872  2620  3893  3890  3894  4587
                               4589  4588
     399   3   1   1   0   1   2873  2818  2872  2870  3910  3896  3894  3892
                               3895  3891
     400   3   1   1   0   1   2873  2767  2819  2579  4590  3718  3909  4583
                               4591  4584
1

 ***** ANSYS - ENGINEERING ANALYSIS SYSTEM  RELEASE 15.0      *****
 ANSYS Academic Teaching Advanced                  
 00203145          VERSION=LINUX x64     15:15:27  APR 01, 2014 CP=     13.169

                                                                               

 
    ELEM MAT TYP REL ESY SEC        NODES
 
     401   3   1   1   0   1   2873  2819  2767  2997  3909  3718  4590  4592
                               4593  4475
     402   3   1   1   0   1   2579  2997  2619  2873  4594  4595  2445  4583
                               4592  4586
     403   3   1   1   0   1   3013  2662  2646  2647  4596  2293  4597  4598
                               2292  2311
     404   3   1   1   0   1   2997  2818  2872  2873  4469  3896  4599  4592
                               3910  3894
     405   3   1   1   0   1   3014  3015  2977  2892  4600  4601  4602  4603
                               4604  4313
     406   3   1   1   0   1   3014  3016  3017  3018  4605  4606  4607  4608
                               4609  4610
     407   3   1   1   0   1   3014  3016  3018  3015  4605  4609  4608  4600
                               4611  4612
     408   3   1   1   0   1   2726  3019  3014  2977  4613  4614  4615  4616
                               4617  4602
     409   3   1   1   0   1   2711  1758  1759  1739  4618  1407  4515  4619
                               1427  1424
     410   3   1   1   0   1   2740  2741  1308  2728  3416  4620  3411  3414
                               3417  3415
     411   3   1   1   0   1   2765  1325  1308  1330  4621  1227  3484  4622
                               1200  1212
     412   3   1   1   0   1   2765  2980  2979  2981  4347  4346  4333  4623
                               4356  4350
     413   3   1   1   0   1   2728  2764  2730  2765  4334  4336  3392  4330
                               3483  4348
     414   3   1   1   0   1   2765  2979  2741  3020  4333  4332  4329  4624
                               4625  4626
     415   3   1   1   0   1   1166  2980  2730  2765  4627  4349  4628  4629
                               4347  4348
     416   3   1   1   0   1   2706  2211  2210   180  4630  2106  4631  4632
                               2068  2178
     417   3   1   1   0   1   2730  1166  2765  2764  4628  4629  4348  4336
                               4633  3483
     418   3   1   1   0   1   2764  1166  2765   161  4633  4629  3483  3486
                               1059  3487
     419   3   1   1   0   1   2673  2720  2675  2679  4634  3345  4635  4636
                               4637  3208
     420   3   1   1   0   1   2682  1739  2711  1759  4571  4619  3301  3860
                               1424  4515
     421   3   1   1   0   1   3021  2677  2732  2957  4638  4382  4639  4640
                               4225  4387
     422   3   1   1   0   1   2677  2721  2957  3021  4222  4226  4225  4638
                               4641  4640
     423   3   1   1   0   1   2677  2676  2836  2678  3201  3776  4642  3205
                               3204  4317
     424   3   1   1   0   1   2675  2720  1874  2982  3345  3349  3348  4643
                               4644  4645
     425   3   1   1   0   1   2956  2677  2678  2721  4221  3205  4646  4223
                               4222  4647
1

 ***** ANSYS - ENGINEERING ANALYSIS SYSTEM  RELEASE 15.0      *****
 ANSYS Academic Teaching Advanced                  
 00203145          VERSION=LINUX x64     15:15:27  APR 01, 2014 CP=     13.170

                                                                               

 
    ELEM MAT TYP REL ESY SEC        NODES
 
     426   3   1   1   0   1   3016  3022  3023  3024  4648  4649  4650  4651
                               4652  4653
     427   3   1   1   0   1   3016  3015  3025  3018  4611  4654  4655  4609
                               4612  4656
     428   3   1   1   0   1   3014  2977  3015  3018  4602  4601  4600  4608
                               4657  4612
     429   3   1   1   0   1   3014  3016  3015  2894  4605  4611  4600  4658
                               4659  4660
     430   3   1   1   0   1   3016  3025  3023  3022  4655  4661  4650  4648
                               4662  4649
     431   3   1   1   0   1   3016  3018  3022  3017  4609  4663  4648  4606
                               4610  4664
     432   3   1   1   0   1   3026  3027  3028  2783  4665  4666  4667  4668
                               4669  4670
     433   3   1   1   0   1   1730  3026  2704  2784  4671  4672  3578  4673
                               4674  3595
     434   3   1   1   0   1   3026  1737  2782  1736  4675  3583  4676  4677
                               1470  4678
     435   3   1   1   0   1   3026  2784  1691  3027  4674  4679  4680  4665
                               4681  4682
     436   3   1   1   0   1   2706  2227  2210  2211  4683  2095  4631  4630
                               2094  2106
     437   3   1   1   0   1   3026  2782  2704  2701  4676  3585  4672  4684
                               4685  3281
     438   3   1   1   0   1   2899  3029  3009  2897  4686  4687  4556  3977
                               4688  4689
     439   3   1   1   0   1   3029  3009  2897  3030  4687  4689  4688  4690
                               4691  4692
     440   3   1   1   0   1   3030  2887  3029  3011  4693  4694  4690  4695
                               4696  4697
     441   3   1   1   0   1   3030  2792  2746  2743  4698  4699  4700  4701
                               4702  4703
     442   3   1   1   0   1   3030  2746  3031  2887  4700  4704  4705  4693
                               4706  4707
     443   3   1   1   0   1   3032  2760  3033  2919  4708  4709  4710  4711
                               4079  4712
     444   3   1   1   0   1   3032  3034  2692  2919  4713  4714  4715  4711
                               4716  4717
     445   3   1   1   0   1   3032  2760  2762  3033  4708  3472  4718  4710
                               4709  4719
     446   3   1   1   0   1   3032  2761  2762  2755  4720  3467  4718  4721
                               4722  3474
     447   3   1   1   0   1   3032  2692  3034  2797  4715  4714  4713  4723
                               4724  4725
     448   3   1   1   0   1   2711  1759  1758  1768  4515  1407  4618  4112
                               1384  1383
     449   3   1   1   0   1   3035    89  3036  2610  4726  4727  4728  4729
                               2505  4730
     450   3   1   1   0   1   3035  3036    89  2609  4728  4727  4726  4731
                               4732  2506
1

 ***** ANSYS - ENGINEERING ANALYSIS SYSTEM  RELEASE 15.0      *****
 ANSYS Academic Teaching Advanced                  
 00203145          VERSION=LINUX x64     15:15:27  APR 01, 2014 CP=     13.170

                                                                               

 
    ELEM MAT TYP REL ESY SEC        NODES
 
     451   3   1   1   0   1   3035  2639  2840  3037  4733  4734  4735  4736
                               4737  4738
     452   3   1   1   0   1   2763  2859  3038  3039  3864  4739  4740  4741
                               4742  4743
     453   3   1   1   0   1   3035  3040  3037  3036  4744  4745  4736  4728
                               4746  4747
     454   3   1   1   0   1   3035  2840  2610  3036  4735  4748  4729  4728
                               4749  4730
     455   3   1   1   0   1   3035  2639  3037  2638  4733  4737  4736  4750
                               2360  4751
     456   3   1   1   0   1   1708  2705  1707  2210  4752  4753  1562  3746
                               4754  4755
     457   3   1   1   0   1   2705  1707  2210  2941  4753  4755  4754  4202
                               4527  4756
     458   3   1   1   0   1   2210  2941  2209  2943  4756  4757  2107  4758
                               4149  4759
     459   3   1   1   0   1    125     8  2585  1046   124  2238  2513  1042
                               1009  4760
     460   3   1   1   0   1   2941  2705  1707  1738  4202  4753  4527  4201
                               4199  1500
     461   3   1   1   0   1   2941  2955  1724  1706  4761  4762  4528  4763
                               4764  1536
     462   3   1   1   0   1   2682  1709  1739  1740  4574  1499  4571  3859
                               1496  1466
     463   3   1   1   0   1   3041  3042  2630  2595  4765  4766  4767  4768
                               4769  2420
     464   3   1   1   0   1   3041  3043  3044  3045  4770  4771  4772  4773
                               4774  4775
     465   3   1   1   0   1   3041  3042  2595  2776  4765  4769  4768  4776
                               4777  4778
     466   3   1   1   0   1   3041  3044  3042  3046  4772  4779  4765  4780
                               4781  4782
     467   3   1   1   0   1   2706  2210  1708   180  4631  3746  4783  4632
                               2178  1614
     468   3   1   1   0   1   2769  3046  2779  2776  4784  4785  4786  3553
                               4787  4788
     469   3   1   1   0   1   3041  3044  2779  3045  4772  4789  4790  4773
                               4775  4791
     470   3   1   1   0   1   2842  2840  1311  1312  3798  4792  4793  4794
                               4795  1264
     471   3   1   1   0   1   2842  3047  1324  3048  4796  4797  4798  4799
                               4800  4801
     472   3   1   1   0   1   2842  3048  3049  2857  4799  4802  4803  4804
                               4805  4806
     473   3   1   1   0   1   2842  1320  2841  1312  4807  4808  3799  4794
                               1253  4809
     474   3   1   1   0   1   2842  3047  1320  1324  4796  4810  4807  4798
                               4797  1235
     475   3   1   1   0   1   3047  2839  2857  2842  4811  4812  4813  4796
                               3800  4804
1

 ***** ANSYS - ENGINEERING ANALYSIS SYSTEM  RELEASE 15.0      *****
 ANSYS Academic Teaching Advanced                  
 00203145          VERSION=LINUX x64     15:15:27  APR 01, 2014 CP=     13.171

                                                                               

 
    ELEM MAT TYP REL ESY SEC        NODES
 
     476   3   1   1   0   1   3050  3024  3017  3051  4814  4815  4816  4817
                               4818  4819
     477   3   1   1   0   1   3024  3003  3050  3022  4820  4821  4814  4652
                               4822  4823
     478   3   1   1   0   1   3003  3022  3052  3050  4822  4824  4825  4821
                               4823  4826
     479   3   1   1   0   1   3053  1766  1753  1756  4827  1392  4828  4829
                               1387  1391
     480   3   1   1   0   1   3003  2996  2995  2820  4526  4463  4830  4831
                               4832  4833
     481   3   1   1   0   1   3003  3008  3022  3024  4545  4834  4822  4820
                               4835  4652
     482   3   1   1   0   1   2750  2746  2792  2744  3615  4699  3630  3449
                               4836  3633
     483   3   1   1   0   1   3054  2769  2791  2750  4837  4838  4839  4840
                               4841  3622
     484   3   1   1   0   1   2792   992  2743  2897  4842  4843  4702  4844
                               4845  4846
     485   3   1   1   0   1   2763  3038  2859  3055  4740  4739  3864  4847
                               4848  4849
     486   3   1   1   0   1   2792  2793   992  3056  3631  4850  4842  4851
                               4852  4853
     487   3   1   1   0   1   2792  2743  2793  2744  4702  4854  3631  3633
                               3421  3634
     488   3   1   1   0   1   1165  1153  3006  3056  1094  4855  4537  4856
                               4857  4858
     489   3   1   1   0   1   2963  1681   825   823  4859  1668  4860  4861
                               1667   824
     490   3   1   1   0   1   2792  2793  3056  1153  3631  4852  4851  4862
                               4863  4857
     491   3   1   1   0   1   2684  2683  2738  2729  3218  4343  4864  4865
                               3388  4866
     492   3   1   1   0   1   1166  1161  1167  2980  1079  1054  1074  4627
                               4867  4868
     493   3   1   1   0   1   2980   671  2730  2590  4869  4870  4349  4871
                               2547  4328
     494   3   1   1   0   1   2979  2728  2730  2765  4331  3392  4339  4333
                               4330  4348
     495   3   1   1   0   1   2980  2685  1156   671  4872  3691  4873  4869
                               4874  1131
     496   3   1   1   0   1   2980  1156  2981  1167  4873  4875  4356  4868
                               1089  4876
     497   3   1   1   0   1   2831  2732  2957  2984  4383  4387  4386  4389
                               4877  4390
     498   3   1   1   0   1   2675  2678  2677  2721  3203  3205  3202  3352
                               4647  4222
     499   3   1   1   0   1   2832  2957  2677  2956  4388  4225  4878  4302
                               4224  4221
     500   3   1   1   0   1   2956  3057  2957  3058  4879  4880  4224  4881
                               4882  4883
1

 ***** ANSYS - ENGINEERING ANALYSIS SYSTEM  RELEASE 15.0      *****
 ANSYS Academic Teaching Advanced                  
 00203145          VERSION=LINUX x64     15:15:27  APR 01, 2014 CP=     13.171

                                                                               

 
    ELEM MAT TYP REL ESY SEC        NODES
 
     501   3   1   1   0   1   2675  2677  3059  3021  3202  4884  4885  4886
                               4638  4887
     502   3   1   1   0   1   2939  3060  2904  2936  4888  4889  4140  4890
                               4891  4892
     503   3   1   1   0   1   2705  2707  2680  2711  3295  4573  3284  3300
                               4893  3302
     504   3   1   1   0   1   2680  2866  2934  2712  4894  4895  4896  4897
                               3881  4898
     505   3   1   1   0   1   2866  2864  2940  2904  4899  4900  4144  4129
                               4127  4901
     506   3   1   1   0   1   2864  2863  2861  2712  3873  3870  3871  4514
                               4513  3884
     507   3   1   1   0   1   2842  3037  3049  3036  4902  4903  4803  4904
                               4747  4905
     508   3   1   1   0   1   3061  2051  2039  2062  4906  1990  4907  4908
                               1972  1969
     509   3   1   1   0   1   3049  3048  1319  1323  4802  4909  4910  4911
                               4912  1238
     510   3   1   1   0   1   2751  2989  1939  1938  4913  4914  4915  3441
                               4916  1912
     511   3   1   1   0   1   3062  2630  2594  2629  4917  2419  4918  4919
                               2372  2422
     512   3   1   1   0   1   3049  1317  3063  1323  4920  4921  4922  4911
                               1241  4923
     513   3   1   1   0   1   3049  1317  3036  3063  4920  4924  4905  4922
                               4921  4925
     514   3   1   1   0   1   2912  3004  3064  2907  4926  4927  4928  4929
                               4930  4931
     515   3   1   1   0   1   2907  3065  2868  2712  4932  4933  4934  4512
                               4935  3880
     516   3   1   1   0   1   2910  3004  2911  2912  4532  4547  4032  4035
                               4926  4036
     517   3   1   1   0   1   2912  2862  2909  2910  4936  4937  4034  4035
                               4938  4031
     518   3   1   1   0   1   2907  2864  2908  2712  4027  4030  4029  4512
                               4514  4939
     519   3   1   1   0   1   2862  2907  2912  2863  4026  4929  4936  3869
                               4511  4940
     520   3   1   1   0   1   2772  2604   624  2603  3519  2518  3516  4941
                               2464  2521
     521   3   1   1   0   1   2944  3015  3018  3025  4942  4612  4943  4944
                               4654  4656
     522   3   1   1   0   1   2944  3015  2953  3018  4942  4945  4204  4943
                               4612  4946
     523   3   1   1   0   1   2944  2723  2942  2727  4207  4501  4167  4947
                               3371  4948
     524   3   1   1   0   1   2710  2944  2945  2953  4152  4156  4155  4205
                               4204  4949
     525   3   1   1   0   1   3066  3067   636  3068  4950  4951  4952  4953
                               4954  4955
1

 ***** ANSYS - ENGINEERING ANALYSIS SYSTEM  RELEASE 15.0      *****
 ANSYS Academic Teaching Advanced                  
 00203145          VERSION=LINUX x64     15:15:27  APR 01, 2014 CP=     13.172

                                                                               

 
    ELEM MAT TYP REL ESY SEC        NODES
 
     526   3   1   1   0   1   3066  3069  3070  3017  4956  4957  4958  4959
                               4960  4961
     527   3   1   1   0   1   3071  3066  3069  3070  4962  4956  4963  4964
                               4958  4957
     528   3   1   1   0   1   3066  3051  3017  3070  4965  4819  4959  4958
                               4966  4961
     529   3   1   1   0   1   3066  3069  3068  2046  4956  4967  4953  4968
                               4969  4970
     530   3   1   1   0   1   3066  3067  3068  3017  4950  4954  4953  4959
                               4971  4972
     531   3   1   1   0   1   2708  2946  2908  2712  4164  4173  4172  3304
                               4973  4939
     532   3   1   1   0   1   2707  2708  2705  2706  3289  3296  3295  3291
                               3290  3287
     533   3   1   1   0   1   2709  2708  2821  2908  3293  4168  4974  4975
                               4172  4171
     534   3   1   1   0   1   2941  2210  2705  2943  4756  4754  4202  4149
                               4758  4160
     535   3   1   1   0   1   2705  1750  2941  2710  4200  4203  4202  3298
                               4976  4196
     536   3   1   1   0   1   2708  2709  2943  2706  3293  4162  4150  3290
                               3294  4161
     537   3   1   1   0   1   2705  2943  2210  2706  4160  4758  4754  3287
                               4161  4631
     538   3   1   1   0   1   2705  2706  1708  1739  3287  4783  4752  4570
                               4572  1498
     539   3   1   1   0   1   2695  2700  2704  1941  3270  3283  3282  4977
                               4978  4558
     540   3   1   1   0   1   2703  2751  2039  2806  4979  3439  4980  4981
                               4982  4983
     541   3   1   1   0   1   2696  2697  1887  1868  3257  4984  3613  4985
                               4986  1801
     542   3   1   1   0   1   2696  1888  2789  1940  4987  4988  4989  4443
                               4990  3610
     543   3   1   1   0   1   2703  1939  1940   656  3278  1910  4444  4991
                               1918  1909
     544   3   1   1   0   1   2695  2702  2698  2783  3272  3275  3259  3593
                               4992  4993
     545   3   1   1   0   1   2703  2700  1939  2989  3280  3279  3278  4994
                               4995  4914
     546   3   1   1   0   1   2703  2806  2789  2698  4981  4996  4997  3276
                               4998  4371
     547   3   1   1   0   1   2978  2874  2903  2872  4321  4999  5000  5001
                               3899  5002
     548   3   1   1   0   1   2903  3072  2978  3013  5003  5004  5000  5005
                               5006  5007
     549   3   1   1   0   1   2903  3013  2872  3073  5005  5008  5002  5009
                               5010  5011
     550   3   1   1   0   1   2903  2879  2880  2874  4011  3922  4014  4999
                               5012  5013
1

 ***** ANSYS - ENGINEERING ANALYSIS SYSTEM  RELEASE 15.0      *****
 ANSYS Academic Teaching Advanced                  
 00203145          VERSION=LINUX x64     15:15:27  APR 01, 2014 CP=     13.172

                                                                               

 
    ELEM MAT TYP REL ESY SEC        NODES
 
     551   3   1   1   0   1   2851  2860  3074  2763  3865  5014  5015  3840
                               3866  5016
     552   3   1   1   0   1   2851  2855  2857  3074  3850  3854  3853  5015
                               5017  5018
     553   3   1   1   0   1   2857  2855  2839  3074  3854  5019  4812  5018
                               5017  5020
     554   3   1   1   0   1   2855  3037  3075  2858  5021  5022  5023  3857
                               5024  5025
     555   3   1   1   0   1   2927  3074  2928  2839  5026  5027  4090  5028
                               5020  5029
     556   3   1   1   0   1   2927  3037  3075  2855  5030  5022  5031  5032
                               5021  5023
     557   3   1   1   0   1   3061  2050   626  2051  5033  2015  5034  4906
                               1993  2014
     558   3   1   1   0   1   2849  2762  3076  2850  3831  5035  5036  3839
                               5037  5038
     559   3   1   1   0   1   2762  2852  2800  3076  5039  5040  5041  5035
                               5042  5043
     560   3   1   1   0   1   2969  2758  2848  2833  4271  3824  5044  5045
                               5046  5047
     561   3   1   1   0   1   2762  2763  2761  2852  3471  3470  3467  5039
                               3841  3844
     562   3   1   1   0   1   3041  2779  2776  2631  4790  4788  4776  5048
                               5049  3544
     563   3   1   1   0   1   3044  3045  3043  2770  4775  4774  4771  5050
                               5051  5052
     564   3   1   1   0   1   3044  3046  2791  3077  4781  5053  5054  5055
                               5056  5057
     565   3   1   1   0   1   3044  2749  3046  2770  5058  5059  4781  5050
                               5060  5061
     566   3   1   1   0   1   3044  2889  2791  2749  5062  5063  5054  5058
                               5064  3624
     567   3   1   1   0   1   2759  2833  2758  2831  3813  5046  3461  3821
                               3766  5065
     568   3   1   1   0   1   2758  2832  2833  2969  5066  3767  5046  4271
                               5067  5045
     569   3   1   1   0   1   2758  2760  3078  2967  3464  5068  5069  4268
                               5070  5071
     570   3   1   1   0   1   2984  2892  3079  3080  5072  5073  5074  5075
                               5076  5077
     571   3   1   1   0   1   2832  2984  2892  3079  4391  5072  4303  5078
                               5074  5073
     572   3   1   1   0   1   2956  2832  2984  2892  4302  4391  5079  4219
                               4303  5072
     573   3   1   1   0   1   2957  3057  2735  3058  4880  5080  5081  4883
                               4882  5082
     574   3   1   1   0   1   2677  2832  2836  2831  4878  4306  4642  4381
                               3763  5083
     575   3   1   1   0   1   2831  2834  2679  2843  3768  5084  4384  3822
                               5085  5086
1

 ***** ANSYS - ENGINEERING ANALYSIS SYSTEM  RELEASE 15.0      *****
 ANSYS Academic Teaching Advanced                  
 00203145          VERSION=LINUX x64     15:15:27  APR 01, 2014 CP=     13.173

                                                                               

 
    ELEM MAT TYP REL ESY SEC        NODES
 
     576   3   1   1   0   1   2957  2984  2732  2735  4390  4877  4387  5081
                               5087  3402
     577   3   1   1   0   1   2984  3057  3081  2735  5088  5089  5090  5087
                               5080  5091
     578   3   1   1   0   1   3074  2763  3082  2852  5016  5092  5093  5094
                               3841  5095
     579   3   1   1   0   1   2851  2763  3074  2852  3840  5016  5015  3842
                               3841  5094
     580   3   1   1   0   1   2754  3039  2763  3079  5096  4741  3469  5097
                               5098  5099
     581   3   1   1   0   1   2754  2851  2961  2761  3862  5100  5101  3466
                               3843  5102
     582   3   1   1   0   1   2754  3039  3079  3078  5096  5098  5097  5103
                               5104  5105
     583   3   1   1   0   1   2763  3080  3038  3055  5106  5107  4740  4847
                               5108  4848
     584   3   1   1   0   1   2857  3074  2852  2851  5018  5094  5109  3853
                               5015  3842
     585   3   1   1   0   1   2763  3055  2860  3074  4847  5110  3866  5016
                               5111  5014
     586   3   1   1   0   1   2763  3080  3074  3082  5106  5112  5016  5092
                               5113  5093
     587   3   1   1   0   1   2763  3080  3055  3074  5106  5108  4847  5016
                               5112  5111
     588   3   1   1   0   1   3055  2952  3083  3080  5114  5115  5116  5108
                               5117  5118
     589   3   1   1   0   1   2952  3084  3080  3055  5119  5120  5117  5114
                               5121  5108
     590   3   1   1   0   1   2984  3080  3082  3057  5075  5113  5122  5088
                               5123  5124
     591   3   1   1   0   1     13  1048   131  2672  1007  1032   132  2248
                               5125  2246
     592   3   1   1   0   1   2842  2840  1312  2841  3798  4795  4794  3799
                               3793  4809
     593   3   1   1   0   1   3035  2840  2639  2610  4735  4734  4733  4729
                               4748  2395
     594   3   1   1   0   1   2840  1312  2611    87  4795  5126  3801  5127
                               1278  2503
     595   3   1   1   0   1   3085  3064  3004  2946  5128  4927  5129  5130
                               5131  5132
     596   3   1   1   0   1   2708  2946  3065  2945  4164  5133  5134  4154
                               5135  5136
     597   3   1   1   0   1   2707  2945  2708  3065  4213  4154  3289  5137
                               5136  5134
     598   3   1   1   0   1   2946  3064  3004  2907  5131  4927  5132  5138
                               4931  4930
     599   3   1   1   0   1   2907  2863  2712  2868  4511  4513  4512  4934
                               5139  3880
     600   3   1   1   0   1   3032  3034  2919  3033  4713  4716  4711  4710
                               5140  4712
1

[...]
    7258   2   1   1   0   1   9675  9710  9754  9645 10490 10985 10481 10485
                              10944 10295
    7259   2   1   1   0   1    710   708  9126  1149   709  9099  9100  1144
                               1145 11319
    7260   2   1   1   0   1   9687   990   998   991 11238   919  9936 10814
                                938   918
    7261   2   1   1   0   1   9682  9787  1886  1885 10548 10547 10545 11503
                              10843  1796
    7262   2   1   1   0   1   9711  9714  9715   643 10060 10063 10062 11569
                              10626 11570
    7263   2   1   1   0   1   9746   845  9692   847 11763  9964 11119 11120
                                846  9963
    7264   2   1   1   0   1   9745   377  8114  8115 11939  8065 11941 10219
                               8062  7995
    7265   2   1   1   0   1     25  9119  7757    24  9118 12045  7741  7731
                               9117  7742
    7266   2   1   1   0   1   9771  1883  1870  1871 11552  1816 11937 11381
                               1817  1832
    7267   2   1   1   0   1   9759   692   731   729 11932  8219 11716 11933
                               8220   730
    7268   2   1   1   0   1    529  9642  9137  9129  9508 10593  9039  9038
                              10427  9052
    7269   2   1   1   0   1    527  9729  9691  9133 10242 10819 11534  9042
                              10245 10821
    7270   2   1   1   0   1   9642  9645  9137  9777  9392 10592 10593 10429
                              11065 10480
    7271   2   1   1   0   1    607   609   404   543   608  9206  9207  9002
                               9003 12051
    7272   2   1   1   0   1   9713   649  2063     4 10326  1953 12072 11427
                                650  1955
    7273   2   1   1   0   1   9701  1151  1164  1163 10135  1095  9988 10451
                               1098  1077
    7274   2   1   1   0   1   9685  9679  9683  9377  9922  9917  9925 11067
                               9928  9932
    7275   2   1   1   0   1   9759  9373  9360  9359 11485  9286 11263 11717
                               9312  9338
1

 ***** ANSYS - ENGINEERING ANALYSIS SYSTEM  RELEASE 15.0      *****
 ANSYS Academic Teaching Advanced                  
 00203145          VERSION=LINUX x64     15:15:27  APR 01, 2014 CP=     13.324

                                                                               

 
    ELEM MAT TYP REL ESY SEC        NODES
 
    7276   2   1   1   0   1   9769  9771  1883  1882 10402 11552 10397 11981
                              11987  1799
    7277   2   1   1   0   1   9685  9683  9664  9373  9925 10607 11715 11484
                              11767 11249
    7278   2   1   1   0   1    434   436   325  9652   435  9214  9220 12042
                              12068 11969
    7279   2   1   1   0   1    253   509   327   251  9460  8997 11973   252
                               9400 11978
    7280   2   1   1   0   1   9828   617   394   619 11665  9213 11662 11655
                                618  9212
    7281   2   1   1   0   1   9828   617   619   551 11665   618 11655 11660
                               9000  9015
    7282   2   1   1   0   1    617   549   551   396  8999   550  9000  9210
                              12097 11666
    7283   2   1   1   0   1    265   343   493   267 11868  8980  9435   266
                              12090  9434
    7284   2   1   1   0   1    267   493   491   343  9434   492  9433 12090
                               8980  8981
    7285   2   1   1   0   1    343   345   491   267   344  8978  8981 12090
                              12093  9433
    7286   2   1   1   0   1   9365   789  8638   787  9335  8609 11479  9336
                                788  8610
    7287   2   1   1   0   1   9672   870  8632   872 10558  8621 12081 10564
                                871  8622
    7288   2   1   1   0   1    499   335   446   501  8989  9177 11952   500
                               8988 11953
    7289   2   1   1   0   1   9653   511   325  9652  9467  9008 11980  9474
                               9478 11969
    7290   2   1   1   0   1   9655    27  7728  9139  9415  7727 12009 12008
                               8964 12007
    7291   2   1   1   0   1    503   255   442   257  9445  8761 11943  9444
                                256  8762
    7292   2   1   1   0   1   9377  9684  9685  9679  9927  9921 11067  9928
                               9920  9922
    7293   2   1   1   0   1   9734  9735  9750  9768 10246 11637 10248 10435
                              10424 11639
    7294   2   1   1   0   1   9373   420  8946   418  9287  8829 11250  9246
                                419  8834
    7295   2   1   1   0   1   9741  8696  8695  8688 11676  8413 11974 12086
                               8379  8368
    7296   2   1   1   0   1   9620   136   993  9637  9604   950 11575  9561
                               9574 11576
    7297   2   1   1   0   1   9814  9771  9684  9363 11373 10404 11070 11593
                              11589 11588
    7298   2   1   1   0   1   8935  1888   836    33 11518  1792  8886  8883
                               1793   835
    7299   2   1   1   0   1   8934   838   836  1868  8891   837  8890 10533
                               1863  1864
    7300   2   1   1   0   1   9729  9639  9688   705 10243 11198 11197 12076
                              12035 12047
1

 ***** ANSYS - ENGINEERING ANALYSIS SYSTEM  RELEASE 15.0      *****
 ANSYS Academic Teaching Advanced                  
 00203145          VERSION=LINUX x64     15:15:27  APR 01, 2014 CP=     13.325

                                                                               

 
    ELEM MAT TYP REL ESY SEC        NODES
 
    7301   2   1   1   0   1   9688  9637  9689   989 11513 10289  9941 11531
                              11533 11736
    7302   2   1   1   0   1   9753  9700  9743  9752 10262 10865 10864 10261
                              10258 11113
    7303   2   1   1   0   1   9785  9358  8637   789 10637 11475 11476 11480
                               9337  8612
    7304   2   1   1   0   1    523  9669  9128   521 10830 11111  9059   522
                              11846  9034
    7305   2   1   1   0   1   1001   981  9134   881   903 11311 11578   905
                                977  9071
    7306   2   1   1   0   1   9677   241  8939  9753  9898  8830  9899 10267
                              10867 10268
    7307   2   1   1   0   1   9796  9797   847  9764 10763 10970 10784 10675
                              10967 10366
    7308   2   1   1   0   1   9785  8639  9365  8638 10691 10693 10519 11478
                               8534 11479
    7309   2   1   1   0   1   2056  9738  9763  2061 11732 10359 11833  1958
                              10146 10364
    7310   2   1   1   0   1   9688   991   701   990 10813   955 10810  9944
                                938   956
    7311   2   1   1   0   1   9674   414   566   412  9887  8744 11216 11215
                                413  8814
    7312   2   1   1   0   1   9737  9380   428  8944 11431  9281 11819 11444
                              11446  8856
    7313   2   1   1   0   1   9729   701   703  9688 10112   702 10124 11197
                              10810 12029
    7314   2   1   1   0   1     15  1003  9620   138   898 11914  9619   139
                                897  9613
    7315   2   1   1   0   1   9717   426  9380  8944 11612  9247 11443 11445
                               8849 11446
    7316   2   1   1   0   1   8944  9736  8937  8930 11616 11614  8857  8860
                              10162  8858
    7317   2   1   1   0   1   9699  8933  8930  9737 10276  8894 10750 11402
                              11818 10164
    7318   2   1   1   0   1   9737  8933  8930  8944 11818  8894 10164 11444
                               8859  8860
    7319   2   1   1   0   1   9828  9388  9656  9140 11652 11925 11658 11654
                              11653 12096
    7320   2   1   1   0   1   9698  8925  9751   752 10270 10862 11149 10757
                              11992 11990
    7321   2   1   1   0   1   9760  9761  9697  9762 10350 11178 10355 10351
                              10353 11179
    7322   2   1   1   0   1   9698  8924  9699  8931 10034 10036  9979 10274
                               8901 10277
    7323   2   1   1   0   1   9751   740  8724  8925 11153  8309 11989 10862
                               8916 11991
    7324   2   1   1   0   1   9728  8697  9822  9823 11855 11821 11809 11812
                              11820 11284
    7325   2   1   1   0   1   9828   619   553   551 11655  9018 11661 11660
                               9015   552
1

 ***** ANSYS - ENGINEERING ANALYSIS SYSTEM  RELEASE 15.0      *****
 ANSYS Academic Teaching Advanced                  
 00203145          VERSION=LINUX x64     15:15:27  APR 01, 2014 CP=     13.326

                                                                               

 
    ELEM MAT TYP REL ESY SEC        NODES
 
    7326   2   1   1   0   1   9625     1    38  8657  9405    37  9607 11988
                               8288  8546
    7327   2   1   1   0   1   9693  9706  2050  9697 10754 11697 12082  9974
                              10753 11698
    7328   2   1   1   0   1   9773   673  9622  1154 12043 11349 11356 11355
                               1134 11350
    7329   2   1   1   0   1   9741  9825  9700  8688 11942 11394 11155 12086
                              11831 11830
    7330   2   1   1   0   1   8740  8739  9388  9656  8730 11917 11919 11926
                              11877 11925
    7331   2   1   1   0   1   9713  2041   647  2042 11734  2034 10056 11080
                               2002  2031
    7332   2   1   1   0   1   9694  9700  8652   758 11391 11390 11389  9972
                               9983  8582
    7333   2   1   1   0   1     29  8948  9656   586  8750 11659  9411   587
                               8749  9409
    7334   2   1   1   0   1    760  9697  9696   758 11837 11852 11497   759
                               9977  9973
    7335   2   1   1   0   1   8740  9140  9656  9388 11927 12096 11926 11919
                              11653 11925
    7336   2   1   1   0   1   8740    30  9656  9140  8733  9402 11926 11927
                               8958 12096
    7337   2   1   1   0   1   9827  8711  8712  8692 11558  8351 11681 11678
                               8375  8372
    7338   2   1   1   0   1   9713  2041  2054  2052 11734  1988 11608 11084
                               1991  1971
    7339   2   1   1   0   1   9821  9822  8710  9823 11273 11711 11687 11706
                              11284 11707
    7340   2   1   1   0   1    444   501   259   446 11954  9442  8764   445
                              11953  8765
    7341   2   1   1   0   1    351   485   273   275  8972  9427 12071 11922
                               9426   274
    7342   2   1   1   0   1    283   359   468   477 12092  9202  8788  9416
                               8965 11876
    7343   2   1   1   0   1    345   454   267   343  9188  8773 12093   344
                               9185 12090
    7344   2   1   1   0   1    315   313  9379  9136   314  9292  9274  9048
                               9063  9838
    7345   2   1   1   0   1   9741  8695  8667  8666 11974  8442 10195 10192
                               8441  8507
    7346   2   1   1   0   1   9123    12   862  9120  9108   861 11227  9096
                               9114 11230
    7347   2   1   1   0   1   9694  8650   762   760 11397  8586 11396 11595
                               8585   761
    7348   2   1   1   0   1   9741  8689  8688  8653 10710  8421 12086 11154
                               8459  8460
    7349   2   1   1   0   1   9826  8686  8651  8687 11777  8464 11401 11601
                               8423  8463
    7350   2   1   1   0   1   9823  9630  9631  9647 11684  9544 11562 11814
                               9389  9524
1

 ***** ANSYS - ENGINEERING ANALYSIS SYSTEM  RELEASE 15.0      *****
 ANSYS Academic Teaching Advanced                  
 00203145          VERSION=LINUX x64     15:15:27  APR 01, 2014 CP=     13.326

                                                                               

 
    ELEM MAT TYP REL ESY SEC        NODES
 
    7351   2   1   1   0   1      1  9625  8926  8657  9405 12040  8743  8288
                              11988 10726
    7352   2   1   1   0   1   9726   872  8631   874 11806  8623 10110 11793
                                873  8624
    7353   2   1   1   0   1   9728  8669  8630  8697 11957  8502 10109 11855
                               8411  8285
    7354   2   1   1   0   1   9672   872  8632  8631 10564  8622 12081 11741
                               8623  8541
    7355   2   1   1   0   1   9728  8670  8630  8631 11810  8501 10109 10111
                               8500  8542
    7356   2   1   1   0   1    444   259   501   257  8764  9442 11954  8763
                                258  9443
    7357   2   1   1   0   1    501   333   444   503  8990  9175 11954   502
                               8991 11944
    7358   2   1   1   0   1   9669  9775  9789  9727 10587 11138 11320 10835
                              10837 11755
    7359   2   1   1   0   1   9818   872   669   870 11632  8245 11858 11743
                                871  8229
    7360   2   1   1   0   1    267   452   265   343  8772  8771   266 12090
                               9186 11868
    7361   2   1   1   0   1   9697  9693   628  2050  9974  9976  9975 11698
                              12082  2016
    7362   2   1   1   0   1   9699   624   754   626 10032  8267 10031 12063
                                625  8255
    7363   2   1   1   0   1   9657  9659  9383  9660  9832 10793  9844  9842
                              11315  9841
    7364   2   1   1   0   1   9819  9696  9761  9697 11674 11498 11176 11160
                              11852 11178
    7365   2   1   1   0   1   9660  9647  9644  9728 10334  9503  9961 11313
                              11813 11738
    7366   2   1   1   0   1   8698  8671  9822  8716  8408 11822 11907  8347
                               8284 11783
    7367   2   1   1   0   1   9704  9365  9366  9383 12000  9272 12027 11530
                               9149  9154
    7368   2   1   1   0   1   9694  8652  8651   758 11389  8521 11398  9972
                               8582  8583
    7369   2   1   1   0   1   9810  1157  1158   667 11649  1104 10890 11126
                               1128  1127
    7370   2   1   1   0   1   9670  8658  9123  9124 11787 11890 10597 11887
                              11886  9050
    7371   2   1   1   0   1   8659   118  9124  8646  8567  9106 11888  8514
                               8566 11912
    7372   2   1   1   0   1   9658  9361   313  9379 10800  9298 10799  9837
                               9291  9292
    7373   2   1   1   0   1   9672  8633  8672  8632 10561  8496  9877 12081
                               8540  8497
    7374   2   1   1   0   1   9667  8673  8701  8700  9868  8403 11545 11815
                               8404  8364
    7375   2   1   1   0   1   9670  8634   866  8635 10825  8617 10605 12037
                               8538  8616
1

 ***** ANSYS - ENGINEERING ANALYSIS SYSTEM  RELEASE 15.0      *****
 ANSYS Academic Teaching Advanced                  
 00203145          VERSION=LINUX x64     15:15:27  APR 01, 2014 CP=     13.327

                                                                               

 
    ELEM MAT TYP REL ESY SEC        NODES
 
    7376   2   1   1   0   1   9666  8634  8674  8673 10823  8493 11089  9867
                               8494  8435
    7377   2   1   1   0   1   9793   862   659  9120 11228  8240 11948 11229
                              11230 11339
    7378   2   1   1   0   1    273   351   460   349 12071  9194  8779 12010
                                350  9191
    7379   2   1   1   0   1    321  9386   323  9138  9233  9228   322  9027
                               9858  9023
    7380   2   1   1   0   1   9742  8693  8694  8665 11905  8415 10198 11464
                               8446  8443
    7381   2   1   1   0   1    273   349   458   271 12010  9192  8778   272
                              11998  8777
    7382   2   1   1   0   1     46  8665  9632  8666  8554 11465  9588  8551
                               8508 10189
    7383   2   1   1   0   1   9741  8689  8696  8688 10710  8412 11676 12086
                               8421  8379
    7384   2   1   1   0   1   9631    50  8663  8664  9590  8558 11690 11693
                               8555  8510
    7385   2   1   1   0   1    758  9697  9696  9693  9977 11852  9973  9971
                               9974  9968
    7386   2   1   1   0   1   9741  8653  9677  8689 11154 10256 10711 10710
                               8459 10713
    7387   2   1   1   0   1   9718  9719  9629  9723 10070 10074 10073 10084
                              10696 10085
    7388   2   1   1   0   1   9761   630   632  2048 11493   631 11836 10349
                               2019  2020
    7389   2   1   1   0   1    247   434   323  9652  8811  9219 10521  9476
                              12042 11968
    7390   2   1   1   0   1   9660  9383  9382  9704  9841  9240 10645 10648
                              11530 10649
    7391   2   1   1   0   1   9741  9700  8653  8688 11155 11156 11154 12086
                              11830  8460
    7392   2   1   1   0   1   9822  8713  8710  8697 11908  8281 11711 11821
                               8367  8353
    7393   2   1   1   0   1   9799  8656  8689  9751 10717  8456 10709 10722
                              10704 11834
    7394   2   1   1   0   1   9659  9383  9704  9367 10793 11530 10020 10015
                               9261 11035
    7395   2   1   1   0   1   9702  8679  8678  8704 11551  8431 11543 11752
                               8396  8395
    7396   2   1   1   0   1   8632  9672  9791  8672 12081 10572 10575  8497
                               9877 11038
    7397   2   1   1   0   1   9667  8674  8701  8673 11090  8402 11545  9868
                               8435  8403
    7398   2   1   1   0   1   9822  8716  8715  8698 11783  8324 11563 11907
                               8347  8348
    7399   2   1   1   0   1   9702  8705  8680  8679  9996  8394  9993 11551
                               8393  8430
    7400   2   1   1   0   1   9798  8708  8707  8686 11597  8355 11482 11776
                               8383  8384
1

 ***** ANSYS - ENGINEERING ANALYSIS SYSTEM  RELEASE 15.0      *****
 ANSYS Academic Teaching Advanced                  
 00203145          VERSION=LINUX x64     15:15:27  APR 01, 2014 CP=     13.328

                                                                               

 
    ELEM MAT TYP REL ESY SEC        NODES
 
    7401   2   1   1   0   1   2045    63  9364  2057  2008  9339 12069  1983
                               1950 12030
    7402   2   1   1   0   1    768  8725  9358    36  8305 11477 11190   769
                               8306  9353
    7403   2   1   1   0   1   9741  9742  9743  9825 10197 10201 10200 11942
                              11699 11512
    7404   2   1   1   0   1    247   323   513  9652 10521  9021  9486  9476
                              11968  9479
    7405   2   1   1   0   1   9625  8668    40    42 11972  8548  9606  9583
                               8547    41
    7406   2   1   1   0   1    325  9652   511   513 11969  9478  9008  9016
                               9479   512
    7407   2   1   1   0   1    438   251   327   436  8757 11978  9170   437
                               8756  9215
