
 LIST ALL SELECTED NODES.   DSYS=      0
1

 ***** ANSYS - ENGINEERING ANALYSIS SYSTEM  RELEASE 15.0      *****
 ANSYS Academic Teaching Advanced                  
 00203145          VERSION=LINUX x64     15:15:26  APR 01, 2014 CP=     12.905

                                                                               


   NODE        X                   Y                   Z
        1   0.700000000000E-01    0.00000000000        2.00000000000    
        2   0.700000000000E-01   0.787435565298E-01    2.00000000000    
        3   0.346944695195E-17   0.425000000000E-01    2.00500000000    
        4   0.173472347598E-17   0.275000000000E-01    2.03000000000    
        5   0.346944695195E-17   0.425000000000E-01    2.05500000000    
        6   0.700000000000E-01    0.00000000000        2.00500000000    
        7   0.700000000000E-01   0.787435565298E-01    2.00500000000    
        8    0.00000000000       0.121243556530        2.00500000000    
        9    0.00000000000       0.121243556530        2.05500000000    
       10   0.700000000000E-01    0.00000000000        2.05500000000    
       11    0.00000000000       0.121243556530        2.00000000000    
       12   0.275000000000E-01   0.121243556530        2.00000000000    
       13   0.275000000000E-01   0.121243556530        2.00500000000    
       14   0.700000000000E-01   0.937435565298E-01    2.03000000000    
       15   0.700000000000E-01   0.787435565298E-01    2.05500000000    
       16   0.425000000000E-01    0.00000000000        2.05500000000    
       17   0.700000000000E-01    0.00000000000        2.06000000000    
       18   0.425000000000E-01    0.00000000000        2.06000000000    
       19    0.00000000000       0.121243556530        2.06000000000    
       20   0.346944695195E-17   0.425000000000E-01    2.06000000000    
       21   0.700000000000E-01    0.00000000000        0.00000000000    
       22   0.700000000000E-01   0.787435565298E-01    2.06000000000    
       23    0.00000000000       0.121243556530        0.00000000000    
       24   0.275000000000E-01   0.121243556530        2.05500000000    
       25   0.275000000000E-01   0.121243556530        2.06000000000    
       26    0.00000000000        0.00000000000        0.00000000000    
       27   0.700000000000E-01   0.121243556530        0.00000000000    
       28    0.00000000000        0.00000000000        3.06000000000    
       29   0.700000000000E-01    0.00000000000        3.06000000000    
       30   0.700000000000E-01   0.121243556530        3.06000000000    
       31    0.00000000000       0.121243556530        3.06000000000    
       32   0.425000000000E-01    0.00000000000        2.00500000000    
       33   0.275000000000E-01    0.00000000000        2.03000000000    
       34   0.425000000000E-01   0.121243556530        2.03000000000    
       35   0.425000000000E-01    0.00000000000        2.00000000000    
       36   0.346944695195E-17   0.425000000000E-01    2.00000000000    
       37   0.700000000000E-01   0.268588913246E-02    2.00000000000    
       38   0.700000000000E-01   0.537177826491E-02    2.00000000000    
       39   0.700000000000E-01   0.805766739737E-02    2.00000000000    
       40   0.700000000000E-01   0.107435565298E-01    2.00000000000    
       41   0.700000000000E-01   0.142435565298E-01    2.00000000000    
       42   0.700000000000E-01   0.177435565298E-01    2.00000000000    
       43   0.700000000000E-01   0.212435565298E-01    2.00000000000    
       44   0.700000000000E-01   0.247435565298E-01    2.00000000000    
       45   0.700000000000E-01   0.282435565298E-01    2.00000000000    
       46   0.700000000000E-01   0.317435565298E-01    2.00000000000    
       47   0.700000000000E-01   0.352435565298E-01    2.00000000000    
       48   0.700000000000E-01   0.387435565298E-01    2.00000000000    
       49   0.700000000000E-01   0.422435565298E-01    2.00000000000    
       50   0.700000000000E-01   0.457435565298E-01    2.00000000000    
1

 ***** ANSYS - ENGINEERING ANALYSIS SYSTEM  RELEASE 15.0      *****
 ANSYS Academic Teaching Advanced                  
 00203145          VERSION=LINUX x64     15:15:26  APR 01, 2014 CP=     12.907

                                                                               


   NODE        X                   Y                   Z
       51   0.700000000000E-01   0.492435565298E-01    2.00000000000    
       52   0.700000000000E-01   0.527435565298E-01    2.00000000000    
       53   0.700000000000E-01   0.562435565298E-01    2.00000000000    
       54   0.700000000000E-01   0.597435565298E-01    2.00000000000    
       55   0.700000000000E-01   0.632435565298E-01    2.00000000000    
       56   0.700000000000E-01   0.667435565298E-01    2.00000000000    
       57   0.700000000000E-01   0.702435565298E-01    2.00000000000    
       58   0.700000000000E-01   0.737435565298E-01    2.00000000000    
       59   0.700000000000E-01   0.762435565298E-01    2.00000000000    
       60    0.00000000000       0.412137606114E-01    2.00714373231    
       61    0.00000000000       0.399275212229E-01    2.00928746463    
       62    0.00000000000       0.383102263611E-01    2.01198295606    
       63    0.00000000000       0.366929314994E-01    2.01467844750    
       64    0.00000000000       0.345239437292E-01    2.01829342712    
       65    0.00000000000       0.323549559590E-01    2.02190840673    
       66    0.00000000000       0.299274779795E-01    2.02595420337    
       67    0.00000000000       0.299274779795E-01    2.03404579663    
       68    0.00000000000       0.323549559590E-01    2.03809159327    
       69    0.00000000000       0.345239437292E-01    2.04170657288    
       70    0.00000000000       0.366929314994E-01    2.04532155250    
       71    0.00000000000       0.383102263611E-01    2.04801704394    
       72    0.00000000000       0.399275212229E-01    2.05071253537    
       73    0.00000000000       0.412137606114E-01    2.05285626769    
       74   0.700000000000E-01   0.268588913246E-02    2.00500000000    
       75   0.700000000000E-01   0.537177826491E-02    2.00500000000    
       76   0.700000000000E-01   0.805766739737E-02    2.00500000000    
       77   0.700000000000E-01   0.107435565298E-01    2.00500000000    
       78   0.700000000000E-01   0.142435565298E-01    2.00500000000    
       79   0.700000000000E-01   0.177435565298E-01    2.00500000000    
       80   0.700000000000E-01   0.212435565298E-01    2.00500000000    
       81   0.700000000000E-01   0.247435565298E-01    2.00500000000    
       82   0.700000000000E-01   0.282435565298E-01    2.00500000000    
       83   0.700000000000E-01   0.317435565298E-01    2.00500000000    
       84   0.700000000000E-01   0.352435565298E-01    2.00500000000    
       85   0.700000000000E-01   0.387435565298E-01    2.00500000000    
       86   0.700000000000E-01   0.422435565298E-01    2.00500000000    
       87   0.700000000000E-01   0.457435565298E-01    2.00500000000    
       88   0.700000000000E-01   0.492435565298E-01    2.00500000000    
       89   0.700000000000E-01   0.527435565298E-01    2.00500000000    
       90   0.700000000000E-01   0.562435565298E-01    2.00500000000    
       91   0.700000000000E-01   0.597435565298E-01    2.00500000000    
       92   0.700000000000E-01   0.632435565298E-01    2.00500000000    
       93   0.700000000000E-01   0.667435565298E-01    2.00500000000    
       94   0.700000000000E-01   0.702435565298E-01    2.00500000000    
       95   0.700000000000E-01   0.737435565298E-01    2.00500000000    
       96   0.700000000000E-01   0.762435565298E-01    2.00500000000    
       97    0.00000000000       0.121243556530        2.00850000000    
       98    0.00000000000       0.121243556530        2.01200000000    
       99    0.00000000000       0.121243556530        2.01683827020    
      100    0.00000000000       0.121243556530        2.02167654039    
1

 ***** ANSYS - ENGINEERING ANALYSIS SYSTEM  RELEASE 15.0      *****
 ANSYS Academic Teaching Advanced                  
 00203145          VERSION=LINUX x64     15:15:26  APR 01, 2014 CP=     12.909

                                                                               


   NODE        X                   Y                   Z
      101    0.00000000000       0.121243556530        2.03000000000    
      102    0.00000000000       0.121243556530        2.03832345961    
      103    0.00000000000       0.121243556530        2.04316172980    
      104    0.00000000000       0.121243556530        2.04800000000    
      105    0.00000000000       0.121243556530        2.05150000000    
      106   0.700000000000E-01    0.00000000000        2.00850000000    
      107   0.700000000000E-01    0.00000000000        2.01200000000    
      108   0.700000000000E-01    0.00000000000        2.01682461538    
      109   0.700000000000E-01    0.00000000000        2.02164923077    
      110   0.700000000000E-01    0.00000000000        2.03000000000    
      111   0.700000000000E-01    0.00000000000        2.03835076923    
      112   0.700000000000E-01    0.00000000000        2.04317538462    
      113   0.700000000000E-01    0.00000000000        2.04800000000    
      114   0.700000000000E-01    0.00000000000        2.05150000000    
      115   0.266760936876E-02   0.121243556530        2.00000000000    
      116   0.533521873751E-02   0.121243556530        2.00000000000    
      117   0.782104492644E-02   0.121243556530        2.00000000000    
      118   0.103068711154E-01   0.121243556530        2.00000000000    
      119   0.134240967147E-01   0.121243556530        2.00000000000    
      120   0.165413223140E-01   0.121243556530        2.00000000000    
      121   0.195206611570E-01   0.121243556530        2.00000000000    
      122   0.225000000000E-01   0.121243556530        2.00000000000    
      123   0.250000000000E-01   0.121243556530        2.00000000000    
      124   0.266760936876E-02   0.121243556530        2.00500000000    
      125   0.533521873751E-02   0.121243556530        2.00500000000    
      126   0.782104492644E-02   0.121243556530        2.00500000000    
      127   0.103068711154E-01   0.121243556530        2.00500000000    
      128   0.134240967147E-01   0.121243556530        2.00500000000    
      129   0.165413223140E-01   0.121243556530        2.00500000000    
      130   0.195206611570E-01   0.121243556530        2.00500000000    
      131   0.225000000000E-01   0.121243556530        2.00500000000    
      132   0.250000000000E-01   0.121243556530        2.00500000000    
      133   0.700000000000E-01   0.912885651149E-01    2.03409165236    
      134   0.700000000000E-01   0.888335737000E-01    2.03818330472    
      135   0.700000000000E-01   0.866828718178E-01    2.04176780785    
      136   0.700000000000E-01   0.845321699357E-01    2.04535231099    
      137   0.700000000000E-01   0.829241026213E-01    2.04803242318    
      138   0.700000000000E-01   0.813160353070E-01    2.05071253537    
      139   0.700000000000E-01   0.800297959184E-01    2.05285626769    
      140   0.673323906312E-01    0.00000000000        2.05500000000    
      141   0.646647812625E-01    0.00000000000        2.05500000000    
      142   0.621789550736E-01    0.00000000000        2.05500000000    
      143   0.596931288846E-01    0.00000000000        2.05500000000    
      144   0.565759032853E-01    0.00000000000        2.05500000000    
      145   0.534586776860E-01    0.00000000000        2.05500000000    
      146   0.504793388430E-01    0.00000000000        2.05500000000    
      147   0.475000000000E-01    0.00000000000        2.05500000000    
      148   0.450000000000E-01    0.00000000000        2.05500000000    
      149   0.673323906312E-01    0.00000000000        2.06000000000    
      150   0.646647812625E-01    0.00000000000        2.06000000000    
1

 ***** ANSYS - ENGINEERING ANALYSIS SYSTEM  RELEASE 15.0      *****
 ANSYS Academic Teaching Advanced                  
 00203145          VERSION=LINUX x64     15:15:26  APR 01, 2014 CP=     12.909

                                                                               


   NODE        X                   Y                   Z
      151   0.621789550736E-01    0.00000000000        2.06000000000    
      152   0.596931288846E-01    0.00000000000        2.06000000000    
      153   0.565759032853E-01    0.00000000000        2.06000000000    
      154   0.534586776860E-01    0.00000000000        2.06000000000    
      155   0.504793388430E-01    0.00000000000        2.06000000000    
      156   0.475000000000E-01    0.00000000000        2.06000000000    
      157   0.450000000000E-01    0.00000000000        2.06000000000    
      158   0.700000000000E-01   0.800297959184E-01    2.00714373231    
      159   0.700000000000E-01   0.813160353070E-01    2.00928746463    
      160   0.700000000000E-01   0.829241026213E-01    2.01196757682    
      161   0.700000000000E-01   0.845321699357E-01    2.01464768901    
      162   0.700000000000E-01   0.866828718178E-01    2.01823219215    
      163   0.700000000000E-01   0.888335737000E-01    2.02181669528    
      164   0.700000000000E-01   0.912885651149E-01    2.02590834764    
      165    0.00000000000       0.118557667397        2.05500000000    
      166    0.00000000000       0.115871778265        2.05500000000    
      167    0.00000000000       0.113185889132        2.05500000000    
      168    0.00000000000       0.110500000000        2.05500000000    
      169    0.00000000000       0.107000000000        2.05500000000    
      170    0.00000000000       0.103500000000        2.05500000000    
      171    0.00000000000       0.100000000000        2.05500000000    
      172    0.00000000000       0.965000000000E-01    2.05500000000    
      173    0.00000000000       0.930000000000E-01    2.05500000000    
      174    0.00000000000       0.895000000000E-01    2.05500000000    
      175    0.00000000000       0.860000000000E-01    2.05500000000    
      176    0.00000000000       0.825000000000E-01    2.05500000000    
      177    0.00000000000       0.790000000000E-01    2.05500000000    
      178    0.00000000000       0.755000000000E-01    2.05500000000    
      179    0.00000000000       0.720000000000E-01    2.05500000000    
      180    0.00000000000       0.685000000000E-01    2.05500000000    
      181    0.00000000000       0.650000000000E-01    2.05500000000    
      182    0.00000000000       0.615000000000E-01    2.05500000000    
      183    0.00000000000       0.580000000000E-01    2.05500000000    
      184    0.00000000000       0.545000000000E-01    2.05500000000    
      185    0.00000000000       0.510000000000E-01    2.05500000000    
      186    0.00000000000       0.475000000000E-01    2.05500000000    
      187    0.00000000000       0.450000000000E-01    2.05500000000    
      188    0.00000000000       0.118557667397        2.06000000000    
      189    0.00000000000       0.115871778265        2.06000000000    
      190    0.00000000000       0.113185889132        2.06000000000    
      191    0.00000000000       0.110500000000        2.06000000000    
      192    0.00000000000       0.107000000000        2.06000000000    
      193    0.00000000000       0.103500000000        2.06000000000    
      194    0.00000000000       0.100000000000        2.06000000000    
      195    0.00000000000       0.965000000000E-01    2.06000000000    
      196    0.00000000000       0.930000000000E-01    2.06000000000    
      197    0.00000000000       0.895000000000E-01    2.06000000000    
      198    0.00000000000       0.860000000000E-01    2.06000000000    
      199    0.00000000000       0.825000000000E-01    2.06000000000    
      200    0.00000000000       0.790000000000E-01    2.06000000000    
1

 ***** ANSYS - ENGINEERING ANALYSIS SYSTEM  RELEASE 15.0      *****
 ANSYS Academic Teaching Advanced                  
 00203145          VERSION=LINUX x64     15:15:26  APR 01, 2014 CP=     12.911

                                                                               


   NODE        X                   Y                   Z
      201    0.00000000000       0.755000000000E-01    2.06000000000    
      202    0.00000000000       0.720000000000E-01    2.06000000000    
      203    0.00000000000       0.685000000000E-01    2.06000000000    
      204    0.00000000000       0.650000000000E-01    2.06000000000    
      205    0.00000000000       0.615000000000E-01    2.06000000000    
      206    0.00000000000       0.580000000000E-01    2.06000000000    
      207    0.00000000000       0.545000000000E-01    2.06000000000    
      208    0.00000000000       0.510000000000E-01    2.06000000000    
      209    0.00000000000       0.475000000000E-01    2.06000000000    
      210    0.00000000000       0.450000000000E-01    2.06000000000    
      211   0.700000000000E-01   0.268588913246E-02    2.05500000000    
      212   0.700000000000E-01   0.537177826491E-02    2.05500000000    
      213   0.700000000000E-01   0.805766739737E-02    2.05500000000    
      214   0.700000000000E-01   0.107435565298E-01    2.05500000000    
      215   0.700000000000E-01   0.142435565298E-01    2.05500000000    
      216   0.700000000000E-01   0.177435565298E-01    2.05500000000    
      217   0.700000000000E-01   0.212435565298E-01    2.05500000000    
      218   0.700000000000E-01   0.247435565298E-01    2.05500000000    
      219   0.700000000000E-01   0.282435565298E-01    2.05500000000    
      220   0.700000000000E-01   0.317435565298E-01    2.05500000000    
      221   0.700000000000E-01   0.352435565298E-01    2.05500000000    
      222   0.700000000000E-01   0.387435565298E-01    2.05500000000    
      223   0.700000000000E-01   0.422435565298E-01    2.05500000000    
      224   0.700000000000E-01   0.457435565298E-01    2.05500000000    
      225   0.700000000000E-01   0.492435565298E-01    2.05500000000    
      226   0.700000000000E-01   0.527435565298E-01    2.05500000000    
      227   0.700000000000E-01   0.562435565298E-01    2.05500000000    
      228   0.700000000000E-01   0.597435565298E-01    2.05500000000    
      229   0.700000000000E-01   0.632435565298E-01    2.05500000000    
      230   0.700000000000E-01   0.667435565298E-01    2.05500000000    
      231   0.700000000000E-01   0.702435565298E-01    2.05500000000    
      232   0.700000000000E-01   0.737435565298E-01    2.05500000000    
      233   0.700000000000E-01   0.762435565298E-01    2.05500000000    
      234   0.700000000000E-01    0.00000000000        1.99650000000    
      235   0.700000000000E-01    0.00000000000        1.99300000000    
      236   0.700000000000E-01    0.00000000000        1.98816172980    
      237   0.700000000000E-01    0.00000000000        1.98332345961    
      238   0.700000000000E-01    0.00000000000        1.97654988133    
      239   0.700000000000E-01    0.00000000000        1.96977630306    
      240   0.700000000000E-01    0.00000000000        1.96031940669    
      241   0.700000000000E-01    0.00000000000        1.95086251033    
      242   0.700000000000E-01    0.00000000000        1.93765823659    
      243   0.700000000000E-01    0.00000000000        1.92445396285    
      244   0.700000000000E-01    0.00000000000        1.90601542569    
      245   0.700000000000E-01    0.00000000000        1.88757688853    
      246   0.700000000000E-01    0.00000000000        1.86193118947    
      247   0.700000000000E-01    0.00000000000        1.83628549041    
      248   0.700000000000E-01    0.00000000000        1.80038151695    
      249   0.700000000000E-01    0.00000000000        1.76447754349    
      250   0.700000000000E-01    0.00000000000        1.71913805863    
1

 ***** ANSYS - ENGINEERING ANALYSIS SYSTEM  RELEASE 15.0      *****
 ANSYS Academic Teaching Advanced                  
 00203145          VERSION=LINUX x64     15:15:26  APR 01, 2014 CP=     12.913

                                                                               


   NODE        X                   Y                   Z
      251   0.700000000000E-01    0.00000000000        1.67379857377    
      252   0.700000000000E-01    0.00000000000        1.62746512902    
      253   0.700000000000E-01    0.00000000000        1.58113168426    
      254   0.700000000000E-01    0.00000000000        1.53477055443    
      255   0.700000000000E-01    0.00000000000        1.48840942460    
      256   0.700000000000E-01    0.00000000000        1.42826054197    
      257   0.700000000000E-01    0.00000000000        1.36811165934    
      258   0.700000000000E-01    0.00000000000        1.32175052865    
      259   0.700000000000E-01    0.00000000000        1.27538939796    
      260   0.700000000000E-01    0.00000000000        1.22902826727    
      261   0.700000000000E-01    0.00000000000        1.18266713658    
      262   0.700000000000E-01    0.00000000000        1.13630600589    
      263   0.700000000000E-01    0.00000000000        1.08994487520    
      264   0.700000000000E-01    0.00000000000        1.04358374451    
      265   0.700000000000E-01    0.00000000000       0.997222613815    
      266   0.700000000000E-01    0.00000000000       0.950861483124    
      267   0.700000000000E-01    0.00000000000       0.904500352433    
      268   0.700000000000E-01    0.00000000000       0.858139221743    
      269   0.700000000000E-01    0.00000000000       0.811778091052    
      270   0.700000000000E-01    0.00000000000       0.765416960361    
      271   0.700000000000E-01    0.00000000000       0.719055829670    
      272   0.700000000000E-01    0.00000000000       0.672694698980    
      273   0.700000000000E-01    0.00000000000       0.626333568289    
      274   0.700000000000E-01    0.00000000000       0.579972437598    
      275   0.700000000000E-01    0.00000000000       0.533611306907    
      276   0.700000000000E-01    0.00000000000       0.487250176217    
      277   0.700000000000E-01    0.00000000000       0.440889045526    
      278   0.700000000000E-01    0.00000000000       0.394527914835    
      279   0.700000000000E-01    0.00000000000       0.348166784144    
      280   0.700000000000E-01    0.00000000000       0.301805653454    
      281   0.700000000000E-01    0.00000000000       0.255444522763    
      282   0.700000000000E-01    0.00000000000       0.209083392072    
      283   0.700000000000E-01    0.00000000000       0.162722261381    
      284   0.700000000000E-01    0.00000000000       0.116361130691    
      285   0.700000000000E-01    0.00000000000       0.700000000000E-01
      286   0.700000000000E-01    0.00000000000       0.350000000000E-01
      287   0.700000000000E-01   0.268588913246E-02    2.06000000000    
      288   0.700000000000E-01   0.537177826491E-02    2.06000000000    
      289   0.700000000000E-01   0.805766739737E-02    2.06000000000    
      290   0.700000000000E-01   0.107435565298E-01    2.06000000000    
      291   0.700000000000E-01   0.142435565298E-01    2.06000000000    
      292   0.700000000000E-01   0.177435565298E-01    2.06000000000    
      293   0.700000000000E-01   0.212435565298E-01    2.06000000000    
      294   0.700000000000E-01   0.247435565298E-01    2.06000000000    
      295   0.700000000000E-01   0.282435565298E-01    2.06000000000    
      296   0.700000000000E-01   0.317435565298E-01    2.06000000000    
      297   0.700000000000E-01   0.352435565298E-01    2.06000000000    
      298   0.700000000000E-01   0.387435565298E-01    2.06000000000    
      299   0.700000000000E-01   0.422435565298E-01    2.06000000000    
      300   0.700000000000E-01   0.457435565298E-01    2.06000000000    
1

 ***** ANSYS - ENGINEERING ANALYSIS SYSTEM  RELEASE 15.0      *****
 ANSYS Academic Teaching Advanced                  
 00203145          VERSION=LINUX x64     15:15:26  APR 01, 2014 CP=     12.915

                                                                               


   NODE        X                   Y                   Z
      301   0.700000000000E-01   0.492435565298E-01    2.06000000000    
      302   0.700000000000E-01   0.527435565298E-01    2.06000000000    
      303   0.700000000000E-01   0.562435565298E-01    2.06000000000    
      304   0.700000000000E-01   0.597435565298E-01    2.06000000000    
      305   0.700000000000E-01   0.632435565298E-01    2.06000000000    
      306   0.700000000000E-01   0.667435565298E-01    2.06000000000    
      307   0.700000000000E-01   0.702435565298E-01    2.06000000000    
      308   0.700000000000E-01   0.737435565298E-01    2.06000000000    
      309   0.700000000000E-01   0.762435565298E-01    2.06000000000    
      310    0.00000000000       0.121243556530        1.99650000000    
      311    0.00000000000       0.121243556530        1.99300000000    
      312    0.00000000000       0.121243556530        1.98816172980    
      313    0.00000000000       0.121243556530        1.98332345961    
      314    0.00000000000       0.121243556530        1.97654988133    
      315    0.00000000000       0.121243556530        1.96977630306    
      316    0.00000000000       0.121243556530        1.96031940669    
      317    0.00000000000       0.121243556530        1.95086251033    
      318    0.00000000000       0.121243556530        1.93765823659    
      319    0.00000000000       0.121243556530        1.92445396285    
      320    0.00000000000       0.121243556530        1.90601542569    
      321    0.00000000000       0.121243556530        1.88757688853    
      322    0.00000000000       0.121243556530        1.86193118947    
      323    0.00000000000       0.121243556530        1.83628549041    
      324    0.00000000000       0.121243556530        1.80119574592    
      325    0.00000000000       0.121243556530        1.76610600143    
      326    0.00000000000       0.121243556530        1.72273073932    
      327    0.00000000000       0.121243556530        1.67935547721    
      328    0.00000000000       0.121243556530        1.63312323101    
      329    0.00000000000       0.121243556530        1.58689098480    
      330    0.00000000000       0.121243556530        1.54052985810    
      331    0.00000000000       0.121243556530        1.49416873141    
      332    0.00000000000       0.121243556530        1.43114019538    
      333    0.00000000000       0.121243556530        1.36811165934    
      334    0.00000000000       0.121243556530        1.32175052865    
      335    0.00000000000       0.121243556530        1.27538939796    
      336    0.00000000000       0.121243556530        1.22902826727    
      337    0.00000000000       0.121243556530        1.18266713658    
      338    0.00000000000       0.121243556530        1.13630600589    
      339    0.00000000000       0.121243556530        1.08994487520    
      340    0.00000000000       0.121243556530        1.04358374451    
      341    0.00000000000       0.121243556530       0.997222613815    
      342    0.00000000000       0.121243556530       0.950861483124    
      343    0.00000000000       0.121243556530       0.904500352433    
      344    0.00000000000       0.121243556530       0.858139221743    
      345    0.00000000000       0.121243556530       0.811778091052    
      346    0.00000000000       0.121243556530       0.765416960361    
      347    0.00000000000       0.121243556530       0.719055829670    
      348    0.00000000000       0.121243556530       0.672694698980    
      349    0.00000000000       0.121243556530       0.626333568289    
      350    0.00000000000       0.121243556530       0.579972437598    
1

 ***** ANSYS - ENGINEERING ANALYSIS SYSTEM  RELEASE 15.0      *****
 ANSYS Academic Teaching Advanced                  
 00203145          VERSION=LINUX x64     15:15:26  APR 01, 2014 CP=     12.915

                                                                               


   NODE        X                   Y                   Z
      351    0.00000000000       0.121243556530       0.533611306907    
      352    0.00000000000       0.121243556530       0.487250176217    
      353    0.00000000000       0.121243556530       0.440889045526    
      354    0.00000000000       0.121243556530       0.394527914835    
      355    0.00000000000       0.121243556530       0.348166784144    
      356    0.00000000000       0.121243556530       0.301805653454    
      357    0.00000000000       0.121243556530       0.255444522763    
      358    0.00000000000       0.121243556530       0.209083392072    
      359    0.00000000000       0.121243556530       0.162722261381    
      360    0.00000000000       0.121243556530       0.116361130691    
      361    0.00000000000       0.121243556530       0.700000000000E-01
      362    0.00000000000       0.121243556530       0.350000000000E-01
      363   0.266760936876E-02   0.121243556530        2.05500000000    
      364   0.533521873751E-02   0.121243556530        2.05500000000    
      365   0.782104492644E-02   0.121243556530        2.05500000000    
      366   0.103068711154E-01   0.121243556530        2.05500000000    
      367   0.134240967147E-01   0.121243556530        2.05500000000    
      368   0.165413223140E-01   0.121243556530        2.05500000000    
      369   0.195206611570E-01   0.121243556530        2.05500000000    
      370   0.225000000000E-01   0.121243556530        2.05500000000    
      371   0.250000000000E-01   0.121243556530        2.05500000000    
      372   0.266760936876E-02   0.121243556530        2.06000000000    
      373   0.533521873751E-02   0.121243556530        2.06000000000    
      374   0.782104492644E-02   0.121243556530        2.06000000000    
      375   0.103068711154E-01   0.121243556530        2.06000000000    
      376   0.134240967147E-01   0.121243556530        2.06000000000    
      377   0.165413223140E-01   0.121243556530        2.06000000000    
      378   0.195206611570E-01   0.121243556530        2.06000000000    
      379   0.225000000000E-01   0.121243556530        2.06000000000    
      380   0.250000000000E-01   0.121243556530        2.06000000000    
      381    0.00000000000       0.909326673974E-01    0.00000000000    
      382    0.00000000000       0.606217782649E-01    0.00000000000    
      383    0.00000000000       0.303108891325E-01    0.00000000000    
      384   0.700000000000E-01   0.303108891325E-01    0.00000000000    
      385   0.700000000000E-01   0.606217782649E-01    0.00000000000    
      386   0.700000000000E-01   0.909326673974E-01    0.00000000000    
      387   0.700000000000E-01   0.303108891325E-01    3.06000000000    
      388   0.700000000000E-01   0.606217782649E-01    3.06000000000    
      389   0.700000000000E-01   0.909326673974E-01    3.06000000000    
      390    0.00000000000       0.909326673974E-01    3.06000000000    
      391    0.00000000000       0.606217782649E-01    3.06000000000    
      392    0.00000000000       0.303108891325E-01    3.06000000000    
      393    0.00000000000        0.00000000000        3.02500000000    
      394    0.00000000000        0.00000000000        2.99000000000    
      395    0.00000000000        0.00000000000        2.93412850636    
      396    0.00000000000        0.00000000000        2.87825701271    
      397    0.00000000000        0.00000000000        2.83189588202    
      398    0.00000000000        0.00000000000        2.78553475133    
      399    0.00000000000        0.00000000000        2.73917362064    
      400    0.00000000000        0.00000000000        2.69281248995    
1

 ***** ANSYS - ENGINEERING ANALYSIS SYSTEM  RELEASE 15.0      *****
 ANSYS Academic Teaching Advanced                  
 00203145          VERSION=LINUX x64     15:15:26  APR 01, 2014 CP=     12.917

                                                                               


   NODE        X                   Y                   Z
      401    0.00000000000        0.00000000000        2.64645135926    
      402    0.00000000000        0.00000000000        2.60009022857    
      403    0.00000000000        0.00000000000        2.55373004189    
      404    0.00000000000        0.00000000000        2.50736985522    
      405    0.00000000000        0.00000000000        2.46110720021    
      406    0.00000000000        0.00000000000        2.41484454521    
      407    0.00000000000        0.00000000000        2.36986617737    
      408    0.00000000000        0.00000000000        2.32488780953    
      409    0.00000000000        0.00000000000        2.28554098084    
      410    0.00000000000        0.00000000000        2.24619415215    
      411    0.00000000000        0.00000000000        2.21682218615    
      412    0.00000000000        0.00000000000        2.18745022015    
      413    0.00000000000        0.00000000000        2.16601563831    
      414    0.00000000000        0.00000000000        2.14458105648    
      415    0.00000000000        0.00000000000        2.12856163744    
      416    0.00000000000        0.00000000000        2.11254221841    
      417    0.00000000000        0.00000000000        2.09993510937    
      418    0.00000000000        0.00000000000        2.08732800034    
      419    0.00000000000        0.00000000000        2.07630934158    
      420    0.00000000000        0.00000000000        2.06529068283    
      421    0.00000000000        0.00000000000        2.05548128245    
      422    0.00000000000        0.00000000000        2.04567188206    
      423    0.00000000000        0.00000000000        2.03666929830    
      424    0.00000000000        0.00000000000        2.02766671453    
      425    0.00000000000        0.00000000000        2.01749025590    
      426    0.00000000000        0.00000000000        2.00731379727    
      427    0.00000000000        0.00000000000        1.99574355075    
      428    0.00000000000        0.00000000000        1.98417330422    
      429    0.00000000000        0.00000000000        1.96917310942    
      430    0.00000000000        0.00000000000        1.95417291461    
      431    0.00000000000        0.00000000000        1.93158551121    
      432    0.00000000000        0.00000000000        1.90899810781    
      433    0.00000000000        0.00000000000        1.87036053703    
      434    0.00000000000        0.00000000000        1.83172296625    
      435    0.00000000000        0.00000000000        1.78536183556    
      436    0.00000000000        0.00000000000        1.73900070487    
      437    0.00000000000        0.00000000000        1.69263957418    
      438    0.00000000000        0.00000000000        1.64627844349    
      439    0.00000000000        0.00000000000        1.59991731279    
      440    0.00000000000        0.00000000000        1.55355618210    
      441    0.00000000000        0.00000000000        1.50719505141    
      442    0.00000000000        0.00000000000        1.46083392072    
      443    0.00000000000        0.00000000000        1.41447279003    
      444    0.00000000000        0.00000000000        1.36811165934    
      445    0.00000000000        0.00000000000        1.32175052865    
      446    0.00000000000        0.00000000000        1.27538939796    
      447    0.00000000000        0.00000000000        1.22902826727    
      448    0.00000000000        0.00000000000        1.18266713658    
      449    0.00000000000        0.00000000000        1.13630600589    
      450    0.00000000000        0.00000000000        1.08994487520    
1

 ***** ANSYS - ENGINEERING ANALYSIS SYSTEM  RELEASE 15.0      *****
 ANSYS Academic Teaching Advanced                  
 00203145          VERSION=LINUX x64     15:15:26  APR 01, 2014 CP=     12.919

                                                                               


   NODE        X                   Y                   Z
      451    0.00000000000        0.00000000000        1.04358374451    
      452    0.00000000000        0.00000000000       0.997222613815    
      453    0.00000000000        0.00000000000       0.950861483124    
      454    0.00000000000        0.00000000000       0.904500352433    
      455    0.00000000000        0.00000000000       0.858139221743    
      456    0.00000000000        0.00000000000       0.811778091052    
      457    0.00000000000        0.00000000000       0.765416960361    
      458    0.00000000000        0.00000000000       0.719055829670    
      459    0.00000000000        0.00000000000       0.672694698980    
      460    0.00000000000        0.00000000000       0.626333568289    
      461    0.00000000000        0.00000000000       0.579972437598    
      462    0.00000000000        0.00000000000       0.533611306907    
      463    0.00000000000        0.00000000000       0.487250176217    
      464    0.00000000000        0.00000000000       0.440889045526    
      465    0.00000000000        0.00000000000       0.394527914835    
      466    0.00000000000        0.00000000000       0.348166784144    
      467    0.00000000000        0.00000000000       0.301805653454    
      468    0.00000000000        0.00000000000       0.255444522763    
      469    0.00000000000        0.00000000000       0.209083392072    
      470    0.00000000000        0.00000000000       0.162722261381    
      471    0.00000000000        0.00000000000       0.116361130691    
      472    0.00000000000        0.00000000000       0.700000000000E-01
      473    0.00000000000        0.00000000000       0.350000000000E-01
      474   0.700000000000E-01   0.121243556530       0.350000000000E-01
      475   0.700000000000E-01   0.121243556530       0.700000000000E-01
      476   0.700000000000E-01   0.121243556530       0.124194708039    
      477   0.700000000000E-01   0.121243556530       0.178389416079    
      478   0.700000000000E-01   0.121243556530       0.224750546770    
      479   0.700000000000E-01   0.121243556530       0.271111677460    
      480   0.700000000000E-01   0.121243556530       0.317472808151    
      481   0.700000000000E-01   0.121243556530       0.363833938842    
      482   0.700000000000E-01   0.121243556530       0.410195069533    
      483   0.700000000000E-01   0.121243556530       0.456556200223    
      484   0.700000000000E-01   0.121243556530       0.502917330914    
      485   0.700000000000E-01   0.121243556530       0.549278461605    
      486   0.700000000000E-01   0.121243556530       0.595639592296    
      487   0.700000000000E-01   0.121243556530       0.642000722986    
      488   0.700000000000E-01   0.121243556530       0.688361853677    
      489   0.700000000000E-01   0.121243556530       0.734722984368    
      490   0.700000000000E-01   0.121243556530       0.781084115059    
      491   0.700000000000E-01   0.121243556530       0.827445245749    
      492   0.700000000000E-01   0.121243556530       0.873806376440    
      493   0.700000000000E-01   0.121243556530       0.920167507131    
      494   0.700000000000E-01   0.121243556530       0.966528637821    
      495   0.700000000000E-01   0.121243556530        1.01288976851    
      496   0.700000000000E-01   0.121243556530        1.05925089920    
      497   0.700000000000E-01   0.121243556530        1.10561202989    
      498   0.700000000000E-01   0.121243556530        1.15197316058    
      499   0.700000000000E-01   0.121243556530        1.19833429128    
      500   0.700000000000E-01   0.121243556530        1.24469542197    
1

 ***** ANSYS - ENGINEERING ANALYSIS SYSTEM  RELEASE 15.0      *****
 ANSYS Academic Teaching Advanced                  
 00203145          VERSION=LINUX x64     15:15:26  APR 01, 2014 CP=     12.919

                                                                               


   NODE        X                   Y                   Z
      501   0.700000000000E-01   0.121243556530        1.29105655266    
      502   0.700000000000E-01   0.121243556530        1.33741768335    
      503   0.700000000000E-01   0.121243556530        1.38377881404    
      504   0.700000000000E-01   0.121243556530        1.43013994473    
      505   0.700000000000E-01   0.121243556530        1.47650107542    
      506   0.700000000000E-01   0.121243556530        1.52286189871    
      507   0.700000000000E-01   0.121243556530        1.56922272199    
      508   0.700000000000E-01   0.121243556530        1.61554887967    
      509   0.700000000000E-01   0.121243556530        1.66187503734    
      510   0.700000000000E-01   0.121243556530        1.70708275404    
      511   0.700000000000E-01   0.121243556530        1.75229047074    
      512   0.700000000000E-01   0.121243556530        1.78959901157    
      513   0.700000000000E-01   0.121243556530        1.82690755239    
      514   0.700000000000E-01   0.121243556530        1.85448391381    
      515   0.700000000000E-01   0.121243556530        1.88206027522    
      516   0.700000000000E-01   0.121243556530        1.90225282310    
      517   0.700000000000E-01   0.121243556530        1.92244537098    
      518   0.700000000000E-01   0.121243556530        1.93764773907    
      519   0.700000000000E-01   0.121243556530        1.95285010716    
      520   0.700000000000E-01   0.121243556530        1.96500476890    
      521   0.700000000000E-01   0.121243556530        1.97715943064    
      522   0.700000000000E-01   0.121243556530        1.98805152839    
      523   0.700000000000E-01   0.121243556530        1.99894362614    
      524   0.700000000000E-01   0.121243556530        2.00843746424    
      525   0.700000000000E-01   0.121243556530        2.01793130234    
      526   0.700000000000E-01   0.121243556530        2.02705181684    
      527   0.700000000000E-01   0.121243556530        2.03617233134    
      528   0.700000000000E-01   0.121243556530        2.04700320231    
      529   0.700000000000E-01   0.121243556530        2.05783407328    
      530   0.700000000000E-01   0.121243556530        2.06990276085    
      531   0.700000000000E-01   0.121243556530        2.08197144842    
      532   0.700000000000E-01   0.121243556530        2.09832071978    
      533   0.700000000000E-01   0.121243556530        2.11466999114    
      534   0.700000000000E-01   0.121243556530        2.13981913027    
      535   0.700000000000E-01   0.121243556530        2.16496826940    
      536   0.700000000000E-01   0.121243556530        2.20659508917    
      537   0.700000000000E-01   0.121243556530        2.24822190895    
      538   0.700000000000E-01   0.121243556530        2.29458303964    
      539   0.700000000000E-01   0.121243556530        2.34094417033    
      540   0.700000000000E-01   0.121243556530        2.38730530102    
      541   0.700000000000E-01   0.121243556530        2.43366643171    
      542   0.700000000000E-01   0.121243556530        2.48002756240    
      543   0.700000000000E-01   0.121243556530        2.52638869309    
      544   0.700000000000E-01   0.121243556530        2.57274982378    
      545   0.700000000000E-01   0.121243556530        2.61911095447    
      546   0.700000000000E-01   0.121243556530        2.66547208516    
      547   0.700000000000E-01   0.121243556530        2.71183321586    
      548   0.700000000000E-01   0.121243556530        2.75819434655    
      549   0.700000000000E-01   0.121243556530        2.80455547724    
      550   0.700000000000E-01   0.121243556530        2.85091660793    
1

 ***** ANSYS - ENGINEERING ANALYSIS SYSTEM  RELEASE 15.0      *****
 ANSYS Academic Teaching Advanced                  
 00203145          VERSION=LINUX x64     15:15:26  APR 01, 2014 CP=     12.921

                                                                               


   NODE        X                   Y                   Z
      551   0.700000000000E-01   0.121243556530        2.89727773862    
      552   0.700000000000E-01   0.121243556530        2.94363886931    
      553   0.700000000000E-01   0.121243556530        2.99000000000    
      554   0.700000000000E-01   0.121243556530        3.02500000000    
      555   0.700000000000E-01    0.00000000000        2.06350000000    
      556   0.700000000000E-01    0.00000000000        2.06700000000    
      557   0.700000000000E-01    0.00000000000        2.07183827020    
      558   0.700000000000E-01    0.00000000000        2.07667654039    
      559   0.700000000000E-01    0.00000000000        2.08345011867    
      560   0.700000000000E-01    0.00000000000        2.09022369694    
      561   0.700000000000E-01    0.00000000000        2.09968059331    
      562   0.700000000000E-01    0.00000000000        2.10913748967    
      563   0.700000000000E-01    0.00000000000        2.12234176341    
      564   0.700000000000E-01    0.00000000000        2.13554603715    
      565   0.700000000000E-01    0.00000000000        2.15398457431    
      566   0.700000000000E-01    0.00000000000        2.17242311147    
      567   0.700000000000E-01    0.00000000000        2.19806894026    
      568   0.700000000000E-01    0.00000000000        2.22371476905    
      569   0.700000000000E-01    0.00000000000        2.25961892414    
      570   0.700000000000E-01    0.00000000000        2.29552307923    
      571   0.700000000000E-01    0.00000000000        2.34142726735    
      572   0.700000000000E-01    0.00000000000        2.38733145547    
      573   0.700000000000E-01    0.00000000000        2.43369257199    
      574   0.700000000000E-01    0.00000000000        2.48005368852    
      575   0.700000000000E-01    0.00000000000        2.51481800501    
      576   0.700000000000E-01    0.00000000000        2.54958232150    
      577   0.700000000000E-01    0.00000000000        2.58434663798    
      578   0.700000000000E-01    0.00000000000        2.61911095447    
      579   0.700000000000E-01    0.00000000000        2.66547208516    
      580   0.700000000000E-01    0.00000000000        2.71183321586    
      581   0.700000000000E-01    0.00000000000        2.75819434655    
      582   0.700000000000E-01    0.00000000000        2.80455547724    
      583   0.700000000000E-01    0.00000000000        2.85091660793    
      584   0.700000000000E-01    0.00000000000        2.89727773862    
      585   0.700000000000E-01    0.00000000000        2.94363886931    
      586   0.700000000000E-01    0.00000000000        2.99000000000    
      587   0.700000000000E-01    0.00000000000        3.02500000000    
      588    0.00000000000       0.121243556530        2.06350000000    
      589    0.00000000000       0.121243556530        2.06700000000    
      590    0.00000000000       0.121243556530        2.07183827020    
      591    0.00000000000       0.121243556530        2.07667654039    
      592    0.00000000000       0.121243556530        2.08345011867    
      593    0.00000000000       0.121243556530        2.09022369694    
      594    0.00000000000       0.121243556530        2.09968059331    
      595    0.00000000000       0.121243556530        2.10913748967    
      596    0.00000000000       0.121243556530        2.12234176341    
      597    0.00000000000       0.121243556530        2.13554603715    
      598    0.00000000000       0.121243556530        2.15398457431    
      599    0.00000000000       0.121243556530        2.17242311147    
      600    0.00000000000       0.121243556530        2.19806894026    
1

 ***** ANSYS - ENGINEERING ANALYSIS SYSTEM  RELEASE 15.0      *****
 ANSYS Academic Teaching Advanced                  
 00203145          VERSION=LINUX x64     15:15:26  APR 01, 2014 CP=     12.923

                                                                               


   NODE        X                   Y                   Z
      601    0.00000000000       0.121243556530        2.22371476905    
      602    0.00000000000       0.121243556530        2.25923573715    
      603    0.00000000000       0.121243556530        2.29475670525    
      604    0.00000000000       0.121243556530        2.33827609509    
      605    0.00000000000       0.121243556530        2.38179548494    
      606    0.00000000000       0.121243556530        2.42804314570    
      607    0.00000000000       0.121243556530        2.47429080646    
      608    0.00000000000       0.121243556530        2.52065193363    
      609    0.00000000000       0.121243556530        2.56701306080    
      610    0.00000000000       0.121243556530        2.60321809957    
      611    0.00000000000       0.121243556530        2.63942313833    
      612    0.00000000000       0.121243556530        2.67562817709    
      613    0.00000000000       0.121243556530        2.71183321586    
      614    0.00000000000       0.121243556530        2.75819434655    
      615    0.00000000000       0.121243556530        2.80455547724    
      616    0.00000000000       0.121243556530        2.85091660793    
      617    0.00000000000       0.121243556530        2.89727773862    
      618    0.00000000000       0.121243556530        2.94363886931    
      619    0.00000000000       0.121243556530        2.99000000000    
      620    0.00000000000       0.121243556530        3.02500000000    
      621   0.424264917880E-01   0.249855849625E-02    2.00500000000    
      622   0.422062214325E-01   0.498847395405E-02    2.00500000000    
      623   0.416535483100E-01   0.843990006974E-02    2.00500000000    
      624   0.408191233276E-01   0.118342372280E-01    2.00500000000    
      625   0.397073020748E-01   0.151519029148E-01    2.00500000000    
      626   0.383263383621E-01   0.183668665742E-01    2.00500000000    
      627   0.364888553907E-01   0.217902141402E-01    2.00500000000    
      628   0.343464184698E-01   0.250314509826E-01    2.00500000000    
      629   0.321709311415E-01   0.277719496883E-01    2.00500000000    
      630   0.297773836172E-01   0.303242052644E-01    2.00500000000    
      631   0.271819997800E-01   0.326709180765E-01    2.00500000000    
      632   0.244023715948E-01   0.347961816950E-01    2.00500000000    
      633   0.214573398672E-01   0.366855907111E-01    2.00500000000    
      634   0.183668665336E-01   0.383263383816E-01    2.00500000000    
      635   0.151519028684E-01   0.397073020925E-01    2.00500000000    
      636   0.118342371746E-01   0.408191233431E-01    2.00500000000    
      637   0.843990002685E-02   0.416535483187E-01    2.00500000000    
      638   0.498847393128E-02   0.422062214352E-01    2.00500000000    
      639   0.249855848498E-02   0.424264917887E-01    2.00500000000    
      640   0.272154131376E-01   0.394604710405E-02    2.03000000000    
      641   0.263675427093E-01   0.781042197782E-02    2.03000000000    
      642   0.251516968954E-01   0.111194488749E-01    2.03000000000    
      643   0.235225171560E-01   0.142457427552E-01    2.03000000000    
      644   0.215067768437E-01   0.171379272316E-01    2.03000000000    
      645   0.191376019082E-01   0.197484731867E-01    2.03000000000    
      646   0.164539265158E-01   0.220344798489E-01    2.03000000000    
      647   0.134998532201E-01   0.239583798082E-01    2.03000000000    
      648   0.103239281970E-01   0.254885563848E-01    2.03000000000    
      649   0.697834345907E-02   0.265998632058E-01    2.03000000000    
      650   0.351807914478E-02   0.272740374556E-01    2.03000000000    
1

 ***** ANSYS - ENGINEERING ANALYSIS SYSTEM  RELEASE 15.0      *****
 ANSYS Academic Teaching Advanced                  
 00203145          VERSION=LINUX x64     15:15:26  APR 01, 2014 CP=     12.925

                                                                               


   NODE        X                   Y                   Z
      651   0.412137606114E-01    0.00000000000        2.00714373231    
      652   0.399275212229E-01    0.00000000000        2.00928746463    
      653   0.383194642512E-01    0.00000000000        2.01196755958    
      654   0.367114072795E-01    0.00000000000        2.01464765453    
      655   0.346020405032E-01    0.00000000000        2.01816326583    
      656   0.324926737269E-01    0.00000000000        2.02167887712    
      657   0.299963368634E-01    0.00000000000        2.02583943856    
      658   0.275735082120E-01   0.118744998034        2.00500000000    
      659   0.277937785675E-01   0.116255082576        2.00500000000    
      660   0.283464516900E-01   0.112803656460        2.00500000000    
      661   0.291808766724E-01   0.109409319302        2.00500000000    
      662   0.302926979252E-01   0.106091653615        2.00500000000    
      663   0.316736616379E-01   0.102876689956        2.00500000000    
      664   0.333144093061E-01   0.997862166333E-01    2.00500000000    
      665   0.352038183214E-01   0.968411849117E-01    2.00500000000    
      666   0.373290819394E-01   0.940615567307E-01    2.00500000000    
      667   0.396757947521E-01   0.914661728959E-01    2.00500000000    
      668   0.422280503301E-01   0.890726253724E-01    2.00500000000    
      669   0.449685490395E-01   0.868971380438E-01    2.00500000000    
      670   0.482097858884E-01   0.847547011220E-01    2.00500000000    
      671   0.516331334664E-01   0.829172181483E-01    2.00500000000    
      672   0.548480971316E-01   0.815362544373E-01    2.00500000000    
      673   0.581657628254E-01   0.804244331868E-01    2.00500000000    
      674   0.615600999731E-01   0.795900082111E-01    2.00500000000    
      675   0.650115260687E-01   0.790373350946E-01    2.00500000000    
      676   0.675014415150E-01   0.788170647411E-01    2.00500000000    
      677   0.424264917880E-01   0.249855849625E-02    2.05500000000    
      678   0.422062214325E-01   0.498847395405E-02    2.05500000000    
      679   0.416535483100E-01   0.843990006974E-02    2.05500000000    
      680   0.408191233276E-01   0.118342372280E-01    2.05500000000    
      681   0.397073020748E-01   0.151519029148E-01    2.05500000000    
      682   0.383263383621E-01   0.183668665742E-01    2.05500000000    
      683   0.364888553907E-01   0.217902141402E-01    2.05500000000    
      684   0.343464184698E-01   0.250314509826E-01    2.05500000000    
      685   0.321709311415E-01   0.277719496883E-01    2.05500000000    
      686   0.297773836172E-01   0.303242052644E-01    2.05500000000    
      687   0.271819997800E-01   0.326709180765E-01    2.05500000000    
      688   0.244023715948E-01   0.347961816950E-01    2.05500000000    
      689   0.214573398672E-01   0.366855907111E-01    2.05500000000    
      690   0.183668665336E-01   0.383263383816E-01    2.05500000000    
      691   0.151519028684E-01   0.397073020925E-01    2.05500000000    
      692   0.118342371746E-01   0.408191233431E-01    2.05500000000    
      693   0.843990002685E-02   0.416535483187E-01    2.05500000000    
      694   0.498847393128E-02   0.422062214352E-01    2.05500000000    
      695   0.249855848498E-02   0.424264917887E-01    2.05500000000    
      696   0.427845868624E-01   0.117297509426        2.03000000000    
      697   0.436324572907E-01   0.113433134552        2.03000000000    
      698   0.448483031046E-01   0.110124107655        2.03000000000    
      699   0.464774828440E-01   0.106997813775        2.03000000000    
      700   0.484932231563E-01   0.104105629298        2.03000000000    
1

 ***** ANSYS - ENGINEERING ANALYSIS SYSTEM  RELEASE 15.0      *****
 ANSYS Academic Teaching Advanced                  
 00203145          VERSION=LINUX x64     15:15:26  APR 01, 2014 CP=     12.926

                                                                               


   NODE        X                   Y                   Z
      701   0.508623980918E-01   0.101495083343        2.03000000000    
      702   0.535460734842E-01   0.992090766809E-01    2.03000000000    
      703   0.565001467799E-01   0.972851767216E-01    2.03000000000    
      704   0.596760718030E-01   0.957550001450E-01    2.03000000000    
      705   0.630216565409E-01   0.946436933240E-01    2.03000000000    
      706   0.664819208552E-01   0.939695190742E-01    2.03000000000    
      707   0.287862393886E-01   0.121243556530        2.00714373231    
      708   0.300724787771E-01   0.121243556530        2.00928746463    
      709   0.316805357488E-01   0.121243556530        2.01196755958    
      710   0.332885927205E-01   0.121243556530        2.01464765453    
      711   0.353979594968E-01   0.121243556530        2.01816326583    
      712   0.375073262731E-01   0.121243556530        2.02167887712    
      713   0.400036631366E-01   0.121243556530        2.02583943856    
      714   0.424264917880E-01   0.249855849625E-02    2.06000000000    
      715   0.422062214325E-01   0.498847395405E-02    2.06000000000    
      716   0.416532304467E-01   0.844146867302E-02    2.06000000000    
      717   0.408182318931E-01   0.118373115666E-01    2.06000000000    
      718   0.397061598479E-01   0.151548959131E-01    2.06000000000    
      719   0.383249526887E-01   0.183697577940E-01    2.06000000000    
      720   0.364888553907E-01   0.217902141402E-01    2.06000000000    
      721   0.343483067010E-01   0.250288598776E-01    2.06000000000    
      722   0.321730261173E-01   0.277695226904E-01    2.06000000000    
      723   0.297796711375E-01   0.303219588243E-01    2.06000000000    
      724   0.271844643396E-01   0.326688674209E-01    2.06000000000    
      725   0.244049964886E-01   0.347943407236E-01    2.06000000000    
      726   0.214601073031E-01   0.366839719025E-01    2.06000000000    
      727   0.183697577533E-01   0.383249527082E-01    2.06000000000    
      728   0.151548958667E-01   0.397061598656E-01    2.06000000000    
      729   0.118373115132E-01   0.408182319085E-01    2.06000000000    
      730   0.844146863011E-02   0.416532304554E-01    2.06000000000    
      731   0.498847393128E-02   0.422062214352E-01    2.06000000000    
      732   0.249855848498E-02   0.424264917887E-01    2.06000000000    
      733   0.673323906312E-01    0.00000000000        2.00000000000    
      734   0.646647812625E-01    0.00000000000        2.00000000000    
      735   0.621789550736E-01    0.00000000000        2.00000000000    
      736   0.596931288846E-01    0.00000000000        2.00000000000    
      737   0.565759032853E-01    0.00000000000        2.00000000000    
      738   0.534586776860E-01    0.00000000000        2.00000000000    
      739   0.504793388430E-01    0.00000000000        2.00000000000    
      740   0.475000000000E-01    0.00000000000        2.00000000000    
      741   0.450000000000E-01    0.00000000000        2.00000000000    
      742   0.673323906312E-01    0.00000000000        2.00500000000    
      743   0.646647812625E-01    0.00000000000        2.00500000000    
      744   0.621789550736E-01    0.00000000000        2.00500000000    
      745   0.596931288846E-01    0.00000000000        2.00500000000    
      746   0.565759032853E-01    0.00000000000        2.00500000000    
      747   0.534586776860E-01    0.00000000000        2.00500000000    
      748   0.504793388430E-01    0.00000000000        2.00500000000    
      749   0.475000000000E-01    0.00000000000        2.00500000000    
      750   0.450000000000E-01    0.00000000000        2.00500000000    
1

 ***** ANSYS - ENGINEERING ANALYSIS SYSTEM  RELEASE 15.0      *****
 ANSYS Academic Teaching Advanced                  
 00203145          VERSION=LINUX x64     15:15:26  APR 01, 2014 CP=     12.927

                                                                               


   NODE        X                   Y                   Z
      751   0.424264917880E-01   0.249855849625E-02    2.00000000000    
      752   0.422062214325E-01   0.498847395405E-02    2.00000000000    
      753   0.416532304467E-01   0.844146867302E-02    2.00000000000    
      754   0.408182318931E-01   0.118373115666E-01    2.00000000000    
      755   0.397061598479E-01   0.151548959131E-01    2.00000000000    
      756   0.383249526887E-01   0.183697577940E-01    2.00000000000    
      757   0.364888553907E-01   0.217902141402E-01    2.00000000000    
      758   0.343483067010E-01   0.250288598776E-01    2.00000000000    
      759   0.321730261173E-01   0.277695226904E-01    2.00000000000    
      760   0.297796711375E-01   0.303219588243E-01    2.00000000000    
      761   0.271844643396E-01   0.326688674209E-01    2.00000000000    
      762   0.244049964886E-01   0.347943407236E-01    2.00000000000    
      763   0.214601073031E-01   0.366839719025E-01    2.00000000000    
      764   0.183697577533E-01   0.383249527082E-01    2.00000000000    
      765   0.151548958667E-01   0.397061598656E-01    2.00000000000    
      766   0.118373115132E-01   0.408182319085E-01    2.00000000000    
      767   0.844146863011E-02   0.416532304554E-01    2.00000000000    
      768   0.498847393128E-02   0.422062214352E-01    2.00000000000    
      769   0.249855848498E-02   0.424264917887E-01    2.00000000000    
      770    0.00000000000       0.118557667397        2.00000000000    
      771    0.00000000000       0.115871778265        2.00000000000    
      772    0.00000000000       0.113185889132        2.00000000000    
      773    0.00000000000       0.110500000000        2.00000000000    
      774    0.00000000000       0.107000000000        2.00000000000    
      775    0.00000000000       0.103500000000        2.00000000000    
      776    0.00000000000       0.100000000000        2.00000000000    
      777    0.00000000000       0.965000000000E-01    2.00000000000    
      778    0.00000000000       0.930000000000E-01    2.00000000000    
      779    0.00000000000       0.895000000000E-01    2.00000000000    
      780    0.00000000000       0.860000000000E-01    2.00000000000    
      781    0.00000000000       0.825000000000E-01    2.00000000000    
      782    0.00000000000       0.790000000000E-01    2.00000000000    
      783    0.00000000000       0.755000000000E-01    2.00000000000    
      784    0.00000000000       0.720000000000E-01    2.00000000000    
      785    0.00000000000       0.685000000000E-01    2.00000000000    
      786    0.00000000000       0.650000000000E-01    2.00000000000    
      787    0.00000000000       0.615000000000E-01    2.00000000000    
      788    0.00000000000       0.580000000000E-01    2.00000000000    
      789    0.00000000000       0.545000000000E-01    2.00000000000    
      790    0.00000000000       0.510000000000E-01    2.00000000000    
      791    0.00000000000       0.475000000000E-01    2.00000000000    
      792    0.00000000000       0.450000000000E-01    2.00000000000    
      793    0.00000000000       0.118557667397        2.00500000000    
      794    0.00000000000       0.115871778265        2.00500000000    
      795    0.00000000000       0.113185889132        2.00500000000    
      796    0.00000000000       0.110500000000        2.00500000000    
      797    0.00000000000       0.107000000000        2.00500000000    
      798    0.00000000000       0.103500000000        2.00500000000    
      799    0.00000000000       0.100000000000        2.00500000000    
      800    0.00000000000       0.965000000000E-01    2.00500000000    
1

 ***** ANSYS - ENGINEERING ANALYSIS SYSTEM  RELEASE 15.0      *****
 ANSYS Academic Teaching Advanced                  
 00203145          VERSION=LINUX x64     15:15:26  APR 01, 2014 CP=     12.929

                                                                               


   NODE        X                   Y                   Z
      801    0.00000000000       0.930000000000E-01    2.00500000000    
      802    0.00000000000       0.895000000000E-01    2.00500000000    
      803    0.00000000000       0.860000000000E-01    2.00500000000    
      804    0.00000000000       0.825000000000E-01    2.00500000000    
      805    0.00000000000       0.790000000000E-01    2.00500000000    
      806    0.00000000000       0.755000000000E-01    2.00500000000    
      807    0.00000000000       0.720000000000E-01    2.00500000000    
      808    0.00000000000       0.685000000000E-01    2.00500000000    
      809    0.00000000000       0.650000000000E-01    2.00500000000    
      810    0.00000000000       0.615000000000E-01    2.00500000000    
      811    0.00000000000       0.580000000000E-01    2.00500000000    
      812    0.00000000000       0.545000000000E-01    2.00500000000    
      813    0.00000000000       0.510000000000E-01    2.00500000000    
      814    0.00000000000       0.475000000000E-01    2.00500000000    
      815    0.00000000000       0.450000000000E-01    2.00500000000    
      816   0.275735082120E-01   0.118744998034        2.05500000000    
      817   0.277937785675E-01   0.116255082576        2.05500000000    
      818   0.283464516900E-01   0.112803656460        2.05500000000    
      819   0.291808766724E-01   0.109409319302        2.05500000000    
      820   0.302926979252E-01   0.106091653615        2.05500000000    
      821   0.316736616379E-01   0.102876689956        2.05500000000    
      822   0.335111446093E-01   0.994533423897E-01    2.05500000000    
      823   0.356535815302E-01   0.962121055472E-01    2.05500000000    
      824   0.378290688585E-01   0.934716068415E-01    2.05500000000    
      825   0.402226163828E-01   0.909193512654E-01    2.05500000000    
      826   0.428180002200E-01   0.885726384533E-01    2.05500000000    
      827   0.455976284052E-01   0.864473748349E-01    2.05500000000    
      828   0.485426601328E-01   0.845579658187E-01    2.05500000000    
      829   0.516331334664E-01   0.829172181483E-01    2.05500000000    
      830   0.548480971316E-01   0.815362544373E-01    2.05500000000    
      831   0.581657628254E-01   0.804244331868E-01    2.05500000000    
      832   0.615600999731E-01   0.795900082111E-01    2.05500000000    
      833   0.650115260687E-01   0.790373350946E-01    2.05500000000    
      834   0.675014415150E-01   0.788170647411E-01    2.05500000000    
      835   0.299963368634E-01    0.00000000000        2.03416056144    
      836   0.324926737269E-01    0.00000000000        2.03832112288    
      837   0.346020405032E-01    0.00000000000        2.04183673417    
      838   0.367114072795E-01    0.00000000000        2.04535234547    
      839   0.383194642512E-01    0.00000000000        2.04803244042    
      840   0.399275212229E-01    0.00000000000        2.05071253537    
      841   0.412137606114E-01    0.00000000000        2.05285626769    
      842   0.275735082120E-01   0.118744998034        2.06000000000    
      843   0.277937785675E-01   0.116255082576        2.06000000000    
      844   0.283467695533E-01   0.112802087857        2.06000000000    
      845   0.291817681069E-01   0.109406244963        2.06000000000    
      846   0.302938401521E-01   0.106088660617        2.06000000000    
      847   0.316750473113E-01   0.102873798736        2.06000000000    
      848   0.335111446093E-01   0.994533423896E-01    2.06000000000    
      849   0.356516932990E-01   0.962146966522E-01    2.06000000000    
      850   0.378269738827E-01   0.934740338394E-01    2.06000000000    
1

 ***** ANSYS - ENGINEERING ANALYSIS SYSTEM  RELEASE 15.0      *****
 ANSYS Academic Teaching Advanced                  
 00203145          VERSION=LINUX x64     15:15:26  APR 01, 2014 CP=     12.931

                                                                               


   NODE        X                   Y                   Z
      851   0.402203288625E-01   0.909215977056E-01    2.06000000000    
      852   0.428155356604E-01   0.885746891089E-01    2.06000000000    
      853   0.455950035114E-01   0.864492158062E-01    2.06000000000    
      854   0.485398926969E-01   0.845595846273E-01    2.06000000000    
      855   0.516302422467E-01   0.829186038217E-01    2.06000000000    
      856   0.548451041333E-01   0.815373966643E-01    2.06000000000    
      857   0.581626884868E-01   0.804253246213E-01    2.06000000000    
      858   0.615585313699E-01   0.795903260745E-01    2.06000000000    
      859   0.650115260687E-01   0.790373350946E-01    2.06000000000    
      860   0.675014415150E-01   0.788170647411E-01    2.06000000000    
      861   0.275735082120E-01   0.118744998034        2.00000000000    
      862   0.277937785675E-01   0.116255082576        2.00000000000    
      863   0.283467695533E-01   0.112802087857        2.00000000000    
      864   0.291817681069E-01   0.109406244963        2.00000000000    
      865   0.302938401521E-01   0.106088660617        2.00000000000    
      866   0.316750473113E-01   0.102873798736        2.00000000000    
      867   0.333160281147E-01   0.997834491974E-01    2.00000000000    
      868   0.352056592927E-01   0.968385600180E-01    2.00000000000    
      869   0.373311325950E-01   0.940590921711E-01    2.00000000000    
      870   0.396780411922E-01   0.914638853755E-01    2.00000000000    
      871   0.422304773280E-01   0.890705303966E-01    2.00000000000    
      872   0.449711401446E-01   0.868952498126E-01    2.00000000000    
      873   0.482097858884E-01   0.847547011220E-01    2.00000000000    
      874   0.516302422467E-01   0.829186038217E-01    2.00000000000    
      875   0.548451041333E-01   0.815373966643E-01    2.00000000000    
      876   0.581626884868E-01   0.804253246213E-01    2.00000000000    
      877   0.615585313699E-01   0.795903260745E-01    2.00000000000    
      878   0.650115260687E-01   0.790373350946E-01    2.00000000000    
      879   0.675014415150E-01   0.788170647411E-01    2.00000000000    
      880   0.400036631366E-01   0.121243556530        2.03416056144    
      881   0.375073262731E-01   0.121243556530        2.03832112288    
      882   0.353979594968E-01   0.121243556530        2.04183673417    
      883   0.332885927205E-01   0.121243556530        2.04535234547    
      884   0.316805357488E-01   0.121243556530        2.04803244042    
      885   0.300724787771E-01   0.121243556530        2.05071253537    
      886   0.287862393886E-01   0.121243556530        2.05285626769    
      887   0.597233905523E-01   0.885055551790E-01    2.04135508416    
      888   0.620983664748E-01   0.891195558072E-01    2.03930254012    
      889   0.525942708290E-01   0.918361363169E-01    2.04112073616    
      890   0.381247683907E-01   0.110800458939        2.04007056927    
      891   0.290273082003E-01   0.118544302407        2.05260251347    
      892   0.652113799997E-01   0.891732846078E-01    2.03820968509    
      893   0.401199994492E-01   0.111696958780        2.03644668095    
      894   0.659817449552E-01   0.820815966565E-01    2.04977928137    
      895   0.642483514287E-01   0.813727643401E-01    2.05130585731    
      896   0.657516138773E-01   0.799194258571E-01    2.05340322895    
      897   0.682450209458E-01   0.810347806431E-01    2.05124509526    
      898   0.682450166880E-01   0.797476687846E-01    2.05338830479    
      899   0.622877018540E-01   0.909356918430E-01    2.03628955044    
      900   0.676945181355E-01   0.898399254901E-01    2.03664690869    
1

 ***** ANSYS - ENGINEERING ANALYSIS SYSTEM  RELEASE 15.0      *****
 ANSYS Academic Teaching Advanced                  
 00203145          VERSION=LINUX x64     15:15:26  APR 01, 2014 CP=     12.932

                                                                               


   NODE        X                   Y                   Z
      901   0.642042339247E-01   0.927815113515E-01    2.03257691926    
      902   0.676945284236E-01   0.923001864237E-01    2.03255840931    
      903   0.376985067640E-01   0.114558031791        2.03914349780    
      904   0.416525573307E-01   0.114441851529        2.03275337887    
      905   0.385126294708E-01   0.118343725487        2.03686769773    
      906   0.410174011707E-01   0.118343750118        2.03271217545    
      907   0.499733683742E-01   0.930154442101E-01    2.04185096791    
      908   0.387490051748E-01   0.103837010140        2.04378612040    
      909   0.427047562681E-01   0.984227862071E-01    2.04346389090    
      910   0.468523647821E-01   0.933640140209E-01    2.04456078675    
      911   0.514205402344E-01   0.899723454405E-01    2.04479039158    
      912   0.571358783562E-01   0.873312938758E-01    2.04461699485    
      913   0.626154267454E-01   0.866071450398E-01    2.04319144779    
      914   0.362480038711E-01   0.110017711020        2.04344981141    
      915   0.389502356490E-01   0.107248306688        2.04093018401    
      916   0.406310533027E-01   0.104622117739        2.04041036403    
      917   0.430442721552E-01   0.101220216403        2.04013157168    
      918   0.452482023412E-01   0.984140204153E-01    2.04028754827    
      919   0.480343331600E-01   0.952393816123E-01    2.04089965807    
      920   0.566620633190E-01   0.899812072368E-01    2.04081458117    
      921   0.366045856332E-01   0.104073912119        2.04675106279    
      922   0.350991694239E-01   0.107315151267        2.04679583204    
      923   0.403870783970E-01   0.986036757640E-01    2.04629309079    
      924   0.383806490229E-01   0.101499098868        2.04629616772    
      925   0.449250208099E-01   0.933794411055E-01    2.04664251777    
      926   0.426082330282E-01   0.958118777702E-01    2.04646253737    
      927   0.494283995719E-01   0.891872226737E-01    2.04764893200    
      928   0.468171831667E-01   0.910973577631E-01    2.04754902262    
      929   0.550340669124E-01   0.866334190615E-01    2.04701217320    
      930   0.520965225696E-01   0.880845381661E-01    2.04697269528    
      931   0.580869030620E-01   0.851351233937E-01    2.04753816443    
      932   0.343712699653E-01   0.110902626062        2.04599845566    
      933   0.652476421062E-01   0.853631242792E-01    2.04448964746    
      934   0.628347099336E-01   0.845756811595E-01    2.04643567238    
      935   0.611189635108E-01   0.839714743087E-01    2.04802590689    
      936   0.637410744323E-01   0.826734134260E-01    2.04929112206    
      937   0.430087988026E-01   0.104492657532        2.03711101794    
      938   0.482027753691E-01   0.978757369809E-01    2.03742635520    
      939   0.550828311134E-01   0.927886820453E-01    2.03771316280    
      940   0.317819298564E-01   0.111981390388        2.04970733697    
      941   0.345706607878E-01   0.104896169416        2.04919817917    
      942   0.381240253027E-01   0.987656188660E-01    2.04917383389    
      943   0.424787040185E-01   0.934415370666E-01    2.04936665855    
      944   0.474176315698E-01   0.890931372938E-01    2.04964806396    
      945   0.529815379388E-01   0.857349980234E-01    2.04979368046    
      946   0.589647494857E-01   0.831156520969E-01    2.05032123841    
      947   0.331638717992E-01   0.114750305212        2.04650674325    
      948   0.675071759973E-01   0.880364472499E-01    2.03966757452    
      949   0.675071825866E-01   0.858815661220E-01    2.04324957697    
      950   0.677329449829E-01   0.838984590440E-01    2.04652307605    
1

 ***** ANSYS - ENGINEERING ANALYSIS SYSTEM  RELEASE 15.0      *****
 ANSYS Academic Teaching Advanced                  
 00203145          VERSION=LINUX x64     15:15:26  APR 01, 2014 CP=     12.934

                                                                               


   NODE        X                   Y                   Z
      951   0.677329551113E-01   0.822883045558E-01    2.04920193806    
      952   0.421801499433E-01   0.110713090987        2.03374362037    
      953   0.436162874387E-01   0.107495697905        2.03375115980    
      954   0.459612554460E-01   0.104050591646        2.03342390757    
      955   0.481725312904E-01   0.101307549670        2.03343584679    
      956   0.509666848538E-01   0.981413009110E-01    2.03405491122    
      957   0.538069628695E-01   0.960564562279E-01    2.03407225734    
      958   0.578325226872E-01   0.941208718738E-01    2.03371147038    
      959   0.611193179148E-01   0.928522756703E-01    2.03374632600    
      960   0.298591181783E-01   0.112614915533        2.05259635156    
      961   0.292427567243E-01   0.116054501182        2.05264373450    
      962   0.323797750627E-01   0.105511997119        2.05212832428    
      963   0.311599859291E-01   0.108790627829        2.05214587358    
      964   0.358897732594E-01   0.989397680085E-01    2.05209159563    
      965   0.339152724717E-01   0.102284690912        2.05210344582    
      966   0.402106317416E-01   0.934152901812E-01    2.05210902110    
      967   0.379318794809E-01   0.960695037246E-01    2.05211471235    
      968   0.452148127878E-01   0.887435310300E-01    2.05228741654    
      969   0.425262721245E-01   0.909816838560E-01    2.05228801797    
      970   0.508465362467E-01   0.850683262524E-01    2.05238816986    
      971   0.478274837803E-01   0.868354822530E-01    2.05238885373    
      972   0.570576308304E-01   0.823810294547E-01    2.05243494730    
      973   0.537889744674E-01   0.836273703507E-01    2.05243441592    
      974   0.635106710665E-01   0.805089921421E-01    2.05291370955    
      975   0.600858826815E-01   0.812040775136E-01    2.05291438586    
      976   0.343280446264E-01   0.117432294618        2.04395829832    
      977   0.364467921101E-01   0.117432315371        2.04044828294    
      978   0.303156645387E-01   0.118544297406        2.05046004829    
      979   0.319265684523E-01   0.118544304722        2.04778165770    
      980   0.306943284266E-01   0.115854255723        2.05028903599    
      981   0.356780745574E-01   0.113654227002        2.04275165926    
      982   0.620180618863E-01   0.820324052103E-01    2.05085886436    
      983   0.559653503555E-01   0.843851723320E-01    2.04989996358    
      984   0.500843123261E-01   0.872654887960E-01    2.04980760288    
      985   0.448634462333E-01   0.910809596150E-01    2.04960596398    
      986   0.402429714412E-01   0.959526512835E-01    2.04925444152    
      987   0.361961552111E-01   0.101713325710        2.04923350919    
      988   0.331635875753E-01   0.108179795635        2.04930717994    
      989   0.592291503042E-01   0.910997916269E-01    2.03751712656    
      990   0.511480405991E-01   0.948810633352E-01    2.03818254449    
      991   0.455344999380E-01   0.101167362969        2.03691381617    
      992   0.408236982601E-01   0.108029331076        2.03754873652    
      993   0.654718094489E-01   0.833618940888E-01    2.04775223585    
      994   0.650241040772E-01   0.873691056811E-01    2.04122993469    
      995   0.602276797730E-01   0.859433395952E-01    2.04521317804    
      996   0.541264637942E-01   0.889364267738E-01    2.04416017985    
      997   0.487988781914E-01   0.911500816790E-01    2.04551958008    
      998   0.450158647771E-01   0.957104476083E-01    2.04370532507    
      999   0.405951996060E-01   0.101303640948        2.04338008762    
     1000   0.370768390465E-01   0.106467312085        2.04431167494    
1

 ***** ANSYS - ENGINEERING ANALYSIS SYSTEM  RELEASE 15.0      *****
[...]
    11848   0.606288903309E-01   0.816413072630E-01    1.99620735645    
    11849   0.675057630344E-01   0.843237359341E-01    1.99444104615    
    11850   0.644260606170E-01   0.957396736872E-01    1.99616290513    
1

 ***** ANSYS - ENGINEERING ANALYSIS SYSTEM  RELEASE 15.0      *****
 ANSYS Academic Teaching Advanced                  
 00203145          VERSION=LINUX x64     15:15:27  APR 01, 2014 CP=     13.156

                                                                               


   NODE        X                   Y                   Z
    11851   0.279914273734E-01   0.251304244096E-01    2.00877952838    
    11852   0.245779324323E-01   0.244341939688E-01    1.99788457155    
    11853   0.549025306977E-01   0.884948619900E-01    2.00328558922    
    11854   0.651613900810E-01   0.108022899706        2.02059693492    
    11855   0.523067798981E-01   0.713910922093E-01    1.99085867405    
    11856   0.283292459875E-01   0.115324900747        1.99570953609    
    11857   0.619436202943E-01   0.988493824370E-01    1.98923199477    
    11858   0.466206408424E-01   0.897098348958E-01    2.00302416325    
    11859   0.451031901648E-01   0.117582795669        2.02234000269    
    11860   0.687507207576E-01   0.830606021342E-01    2.05685972750    
    11861   0.675057630344E-01   0.831707373110E-01    2.05560972750    
    11862   0.525000000000E-01   0.303108891325E-01   0.315000000000E-01
    11863   0.175000000000E-01   0.303108891325E-01   0.315000000000E-01
    11864   0.350000000000E-01   0.303108891325E-01   0.490000000000E-01
    11865   0.350000000000E-01   0.606217782649E-01   0.280000000000E-01
    11866   0.301504922757E-02   0.686336399481E-01    1.99409053186    
    11867   0.299369120812E-01   0.365846062677E-01    2.06328132629    
    11868   0.350000000000E-01   0.606217782649E-01   0.950861483124    
    11869   0.350000000000E-01   0.606217782649E-01   0.997222613815    
    11870   0.350000000000E-01   0.606217782649E-01    1.05141732185    
    11871   0.301986175210E-02   0.758633673912E-01    1.99409053186    
    11872   0.464583703643E-01   0.270262672070E-02    2.06442040582    
    11873   0.557225937522E-01   0.862555974422E-01    2.00653237343    
    11874   0.350000000000E-01   0.606217782649E-01   0.116361130691    
    11875   0.350000000000E-01   0.606217782649E-01   0.700000000000E-01
    11876   0.350000000000E-01   0.606217782649E-01   0.216916969421    
    11877   0.525000000000E-01   0.505585630729E-01    3.04600000000    
    11878   0.350000000000E-01   0.202476739405E-01    3.04250000000    
    11879   0.680985144013E-01   0.755965986252E-01    1.99503947692    
    11880   0.675057630344E-01   0.774225347574E-01    1.99503947692    
    11881   0.654728359208E-01   0.753732274114E-01    1.99503947692    
    11882   0.335736933576E-01   0.245055694401E-01    2.06296995163    
    11883   0.140411654868E-01   0.102520329623        1.99657046795    
    11884   0.350000000000E-01   0.606217782649E-01    1.14413958324    
    11885   0.350000000000E-01   0.606217782649E-01    1.09777845255    
    11886   0.137312332608E-01   0.118539663932        1.99518621828    
    11887   0.168866482772E-01   0.113936099008        1.98909361031    
    11888   0.102740193182E-01   0.117342279852        1.99518621828    
    11889   0.258787937772E-01   0.119312395223        1.99570953609    
    11890   0.235590727316E-01   0.118539663932        1.99570953609    
    11891   0.389327398370E-01   0.124927924813E-02    2.00201469262    
    11892   0.441590124680E-01   0.468837098813E-02    2.06442040582    
    11893   0.386161297085E-01   0.591865578329E-02    2.05875000000    
    11894   0.607027270963E-01   0.690433078550E-01    2.06458929062    
    11895   0.672824482938E-01   0.747665938838E-01    2.06423867448    
    11896   0.566067121894E-01   0.681704621327E-01    2.06458929062    
    11897   0.680132602949E-01   0.771303436866E-01    2.06423867448    
    11898   0.687507207576E-01   0.823466968497E-01    2.00382693935    
    11899   0.589873712624E-01   0.850096506787E-01    2.00403237343    
    11900   0.524752566963E-01   0.909079488072E-01    1.54958661076    
1

 ***** ANSYS - ENGINEERING ANALYSIS SYSTEM  RELEASE 15.0      *****
 ANSYS Academic Teaching Advanced                  
 00203145          VERSION=LINUX x64     15:15:27  APR 01, 2014 CP=     13.157

                                                                               


   NODE        X                   Y                   Z
    11901   0.174752566963E-01   0.909079488072E-01    1.51205961547    
    11902   0.524752566963E-01   0.909079488072E-01    1.50322578748    
    11903   0.524752566963E-01   0.302861705422E-01    1.50917996207    
    11904   0.350000000000E-01   0.606217782649E-01    1.58401133453    
    11905   0.569884042816E-01   0.384677809098E-01    1.99559235573    
    11906   0.350000000000E-01   0.606217782649E-01   0.440889045526    
    11907   0.407039389089E-01   0.672299028640E-01    1.99625688791    
    11908   0.430269219128E-01   0.650597650406E-01    1.99625688791    
    11909   0.672824482938E-01   0.679395643635E-01    2.06790417720    
    11910   0.209691007837E-01   0.118535141419        2.06337955940    
    11911   0.232780791083E-01   0.119312730106        2.06337955940    
    11912   0.636620990997E-02   0.118571716816        1.99518621828    
    11913   0.245568744675E-02   0.114299607040        1.99616812789    
    11914   0.682462287537E-01   0.840565040010E-01    2.05401517364    
    11915   0.350000000000E-01   0.606217782649E-01   0.263278100112    
    11916   0.350000000000E-01   0.606217782649E-01   0.309639230802    
    11917   0.175000000000E-01   0.505585630729E-01    3.04600000000    
    11918   0.591865575659E-02   0.418966164996E-01    2.06354518814    
    11919   0.175000000000E-01   0.709274805699E-01    3.04600000000    
    11920   0.350000000000E-01   0.606217782649E-01   0.348166784144    
    11921   0.350000000000E-01   0.606217782649E-01   0.394527914835    
    11922   0.350000000000E-01   0.606217782649E-01   0.533611306907    
    11923   0.592170202801E-01   0.891696765170E-01    2.04525432748    
    11924   0.561664122907E-01   0.906662201062E-01    2.04472782838    
    11925   0.350000000000E-01   0.606217782649E-01    3.03200000000    
    11926   0.525000000000E-01   0.709274805699E-01    3.04600000000    
    11927   0.350000000000E-01   0.101238369702        3.04250000000    
    11928   0.304325919883E-02   0.110317219450        1.99616812789    
    11929   0.112587555356E-01   0.365811120497E-01    2.05292710304    
    11930   0.591711858730E-02   0.389978174465E-01    2.05662382652    
    11931   0.397793690418E-02   0.381864027008E-01    2.05453679902    
    11932   0.113082804761E-01   0.367296878027E-01    2.05842443943    
    11933   0.113098176454E-01   0.367292420855E-01    2.06092443943    
    11934   0.175152289179E-02   0.355144230280E-01    2.05197226954    
    11935   0.175152289179E-02   0.388027949696E-01    2.05502429174    
    11936   0.249423696564E-02   0.396913664925E-01    2.05662382652    
    11937   0.123554738456E-01   0.345931373805E-01    2.05036317073    
    11938   0.180581901197E-01   0.109426986289        2.06493595123    
    11939   0.168314220351E-01   0.116116164968        2.06493595123    
    11940   0.110873709663E-01   0.117331407981        2.06433406316    
    11941   0.183846299565E-01   0.113407749857        2.06493595123    
    11942   0.497257895768E-01   0.262958304957E-01    1.99058020115    
    11943   0.350000000000E-01   0.606217782649E-01    1.42230636738    
    11944   0.350000000000E-01   0.606217782649E-01    1.37594523669    
    11945   0.350000000000E-01   0.606217782649E-01    1.46866749807    
    11946   0.361627866384E-01   0.117299153254        2.00530961418    
    11947   0.332747951592E-01   0.114804916277        2.00683242321    
    11948   0.333531454647E-01   0.113423828228        2.00207507849    
    11949   0.350000000000E-01   0.916232850304E-01    2.58165647659    
    11950   0.350000000000E-01   0.916232850304E-01    2.61786151536    
1

 ***** ANSYS - ENGINEERING ANALYSIS SYSTEM  RELEASE 15.0      *****
 ANSYS Academic Teaching Advanced                  
 00203145          VERSION=LINUX x64     15:15:27  APR 01, 2014 CP=     13.158

                                                                               


   NODE        X                   Y                   Z
    11951   0.350000000000E-01   0.910707909240E-01    2.64553039247    
    11952   0.350000000000E-01   0.606217782649E-01    1.23686184462    
    11953   0.350000000000E-01   0.606217782649E-01    1.28322297531    
    11954   0.350000000000E-01   0.606217782649E-01    1.32958410600    
    11955   0.717573389943E-02   0.118560650575        2.06433406316    
    11956   0.556903754242E-01   0.648789208032E-01    1.99136245251    
    11957   0.558691297539E-01   0.723566140629E-01    1.99085867405    
    11958   0.541453365566E-01   0.898307511174E-01    2.04755153990    
    11959   0.277481184847E-01   0.667318241111E-01    1.99615687132    
    11960   0.675139730515E-01   0.731359400070E-01    1.99503947692    
    11961   0.594569896762E-01   0.532103376463E-02    2.06246665001    
    11962   0.563397640768E-01   0.532103376463E-02    2.06246665001    
    11963   0.246674043308E-02   0.114531816876        2.06520120194    
    11964   0.636356661737E-01   0.267091319204E-02    2.06481378172    
    11965   0.621566138708E-01   0.799194695667E-02    2.06246665001    
    11966   0.660894775368E-01   0.402883369868E-02    2.07001498366    
    11967   0.675461886370E-01   0.669974689073E-02    2.06520120194    
    11968   0.350000000000E-01   0.908557336542E-01    1.80672205285    
    11969   0.350000000000E-01   0.908557336542E-01    1.77163230836    
    11970   0.640813442434E-01   0.795898185644E-01    2.06423867448    
    11971   0.637174284458E-01   0.876011396220E-02    1.99120428035    
    11972   0.669535879092E-01   0.107011204313E-01    1.99479879806    
    11973   0.350000000000E-01   0.606217782649E-01    1.63024358074    
    11974   0.566785338609E-01   0.234917809817E-01    1.99516737461    
    11975   0.638211856208E-01   0.402883369868E-02    1.98685761725    
    11976   0.636349685493E-02   0.113070170076        1.99616812789    
    11977   0.350000000000E-01   0.909172806487E-01    1.70263776267    
    11978   0.350000000000E-01   0.606217782649E-01    1.67657702549    
    11979   0.350000000000E-01   0.302955023838E-01    1.73246037650    
    11980   0.350000000000E-01   0.909172806487E-01    1.74601302478    
    11981   0.899203645462E-02   0.327735942697E-01    2.04475323066    
    11982   0.174752566963E-01   0.909079488072E-01    1.55842074217    
    11983   0.174752566963E-01   0.302861705422E-01    1.54175334082    
    11984   0.675139730515E-01   0.668538510618E-01    1.99322227914    
    11985   0.643308005550E-01   0.657682238469E-01    1.99322227914    
    11986   0.643308005550E-01   0.720503127921E-01    1.99503947692    
    11987   0.102301613654E-01   0.338136189526E-01    2.04802183017    
    11988   0.675332413291E-01   0.671172029405E-02    1.99479879806    
    11989   0.469787569472E-01   0.552303189648E-02    1.99774265289    
    11990   0.452147150343E-01   0.608644244373E-02    1.99774265289    
    11991   0.453671526292E-01   0.193082642978E-02    1.99515877082    
    11992   0.436031107163E-01   0.249423697703E-02    1.99515877082    
    11993   0.258441595307E-01   0.116569286606        1.99570953609    
    11994   0.441344687631E-01   0.193082642978E-02    2.06442040582    
    11995   0.350000000000E-01   0.909326673974E-01   0.490000000000E-01
    11996   0.175000000000E-01   0.706849934569E-01   0.140000000000E-01
    11997   0.175000000000E-01   0.503160759599E-01   0.140000000000E-01
    11998   0.350000000000E-01   0.606217782649E-01   0.672694698980    
    11999   0.525000000000E-01   0.503160759599E-01   0.140000000000E-01
    12000   0.892484653741E-02   0.647562205610E-01    1.98146922753    
1

 ***** ANSYS - ENGINEERING ANALYSIS SYSTEM  RELEASE 15.0      *****
 ANSYS Academic Teaching Advanced                  
 00203145          VERSION=LINUX x64     15:15:27  APR 01, 2014 CP=     13.159

                                                                               


   NODE        X                   Y                   Z
    12001   0.124927924241E-02   0.392958553840E-01    2.00250000000    
    12002   0.249423696564E-02   0.391857202072E-01    2.00375000000    
    12003   0.281647660185E-02   0.379021899432E-01    2.00580216833    
    12004   0.250421209890E-01   0.118749319553        2.06337955940    
    12005   0.310496461409E-01   0.118749319553        2.06386238904    
    12006   0.526584608853E-01   0.323459059000E-01    2.92431767085    
    12007   0.350000000000E-01   0.100995882589       0.175000000000E-01
    12008   0.525000000000E-01   0.909326673974E-01   0.315000000000E-01
    12009   0.525000000000E-01   0.706849934569E-01   0.140000000000E-01
    12010   0.350000000000E-01   0.606217782649E-01   0.626333568289    
    12011   0.322140709008E-01   0.115355301841        2.05733486652    
    12012   0.309594909600E-01   0.118749319553        2.05597820624    
    12013   0.309594909600E-01   0.118749319553        2.05847820624    
    12014   0.124927924241E-02   0.398015016693E-01    2.05787382652    
    12015   0.669130058346E-01   0.145396347932E-01    2.06520120194    
    12016   0.669510653946E-01   0.106883785213E-01    2.06520120194    
    12017   0.327136678021E-01   0.531191519699E-01    1.99556392431    
    12018   0.486060682190E-01   0.907598333132E-01    2.05295154095    
    12019   0.350000000000E-01   0.606217782649E-01    2.38456347020    
    12020   0.350000000000E-01   0.606217782649E-01    2.33291598993    
    12021   0.350000000000E-01   0.606217782649E-01    1.19050071393    
    12022   0.287364839448E-01   0.128619929405E-01    2.04495752641    
    12023   0.529067122787E-01   0.609949354886E-01    2.06344702721    
    12024   0.227045897102E-01   0.477712229037E-01    2.06382194042    
    12025   0.670806810919E-01   0.635214884111E-01    1.99322227914    
    12026   0.668775258634E-01   0.599465412410E-01    1.99322227914    
    12027   0.892484653741E-02   0.714645607373E-01    1.98373738388    
    12028   0.240504754408E-01   0.283300193461E-01    2.05097132961    
    12029   0.567579877841E-01   0.999801657634E-01    2.03296138287    
    12030   0.446561293513E-02   0.338588417969E-01    2.01086931018    
    12031   0.417869542089E-02   0.321100606414E-01    2.01381255847    
    12032   0.668032602685E-01   0.607971280014E-01    2.06790417720    
    12033   0.115468856616E-01   0.734729984779E-01    2.06226161003    
    12034   0.569058449671E-01   0.639604168550E-01    2.06458929062    
    12035   0.665108282705E-01   0.100147326771        2.03211264907    
    12036   0.665108282705E-01   0.972887415558E-01    2.02615274908    
    12037   0.256728893564E-01   0.105597950418        1.99390739202    
    12038   0.171682830420E-01   0.104459066887        1.99657046795    
    12039   0.445536013311E-01   0.526685974656E-01    1.99624955654    
    12040   0.669194206909E-01   0.402883369868E-02    1.99145600381    
    12041   0.582140330150E-01   0.867659655252E-01    2.00892086303    
    12042   0.350000000000E-01   0.302339553893E-01    1.80444079077    
    12043   0.589889084317E-01   0.850092049614E-01    2.00653237343    
    12044   0.174752566963E-01   0.302861705422E-01    1.49539221013    
    12045   0.308493557822E-01   0.119994277282        2.05722820624    
    12046   0.350000000000E-01   0.916411033998E-01    2.27718781470    
    12047   0.600187426646E-01   0.986594240646E-01    2.03296138287    
    12048   0.350000000000E-01   0.606217782649E-01    2.47717224749    
    12049   0.350000000000E-01   0.310015067655E-01    2.59819506047    
    12050   0.350000000000E-01   0.606217782649E-01    2.55829769115    
1

 ***** ANSYS - ENGINEERING ANALYSIS SYSTEM  RELEASE 15.0      *****
 ANSYS Academic Teaching Advanced                  
 00203145          VERSION=LINUX x64     15:15:27  APR 01, 2014 CP=     13.159

                                                                               


   NODE        X                   Y                   Z
    12051   0.350000000000E-01   0.606217782649E-01    2.51687927416    
    12052   0.292761310335E-01   0.513886801205E-01    1.99738031626    
    12053   0.103677048018E-01   0.526499495891E-01    1.99666607380    
    12054   0.565263187175E-01   0.528777203644E-01    1.99624240398    
    12055   0.637473841945E-01   0.621112119868E-01    1.99322227914    
    12056   0.676993390409E-01   0.929011653605E-01    2.03963373629    
    12057   0.259117680007E-01   0.500889557607E-01    1.99738031626    
    12058   0.601345942265E-01   0.919202584945E-01    2.01958503493    
    12059   0.489591201767E-02   0.356903840751E-01    2.00310322762    
    12060   0.739014898331E-02   0.387108853031E-01    2.00435322762    
    12061   0.249423696564E-02   0.391857202072E-01    2.00125000000    
    12062   0.771238861953E-02   0.374273550391E-01    2.00640539594    
    12063   0.351460987982E-01   0.151510968881E-01    2.00271600723    
    12064   0.338605774847E-01   0.157659998241E-01    2.00574845314    
    12065   0.676993390409E-01   0.983142860769E-01    2.03470741183    
    12066   0.350000000000E-01   0.304490126591E-01    2.62586393759    
    12067   0.524752566963E-01   0.302861705422E-01    1.55554109190    
    12068   0.350000000000E-01   0.302339553893E-01    1.75807966008    
    12069   0.281647660185E-02   0.356100530501E-01    2.00852486201    
    12070   0.350000000000E-01   0.606217782649E-01   0.487250176217    
    12071   0.350000000000E-01   0.606217782649E-01   0.579972437598    
    12072   0.741985984979E-02   0.266545528749E-01    2.02366184330    
    12073   0.350000000000E-01   0.606217782649E-01    2.80455547724    
    12074   0.350000000000E-01   0.606217782649E-01    2.75819434655    
    12075   0.350000000000E-01   0.606217782649E-01    2.71183321586    
    12076   0.612785333981E-01   0.100232420443        2.02899743557    
    12077   0.329233635329E-01   0.943416077957E-01    1.99613040686    
    12078   0.350000000000E-01   0.310193251349E-01    2.29225336684    
    12079   0.199232933917E-01   0.344432706391E-01    2.00400656700    
    12080   0.469995711463E-01   0.828078583552E-02    1.99774265289    
    12081   0.387314171637E-01   0.844029593357E-01    1.99627894163    
    12082   0.332227594778E-01   0.198185858507E-01    2.00360229748    
    12083   0.551069590638E-01   0.612219089430E-01    1.99136245251    
    12084   0.566886633078E-01   0.567169731271E-01    1.99624240398    
    12085   0.436243420546E-01   0.310762837765E-01    1.99541282654    
    12086   0.527960303353E-01   0.226538175638E-01    1.99516737461    
    12087   0.350000000000E-01   0.606217782649E-01    2.42425548846    
    12088   0.350000000000E-01   0.304490126591E-01    2.67222506828    
    12089   0.350000000000E-01   0.910707909240E-01    2.68173543123    
    12090   0.350000000000E-01   0.606217782649E-01   0.904500352433    
    12091   0.350000000000E-01   0.200051868274E-01   0.175000000000E-01
    12092   0.350000000000E-01   0.606217782649E-01   0.162722261381    
    12093   0.350000000000E-01   0.606217782649E-01   0.858139221743    
    12094   0.350000000000E-01   0.606217782649E-01   0.811778091052    
    12095   0.249423696564E-02   0.357716395547E-01    1.99657125911    
    12096   0.525000000000E-01   0.909326673974E-01    3.02850000000    
    12097   0.350000000000E-01   0.606217782649E-01    2.84140624497    
