
 PRINT DOF  NODAL SOLUTION PER NODE
1

 ***** ANSYS - ENGINEERING ANALYSIS SYSTEM  RELEASE 15.0      *****
 ANSYS Academic Teaching Advanced                  
 00203145          VERSION=LINUX x64     15:15:26  APR 01, 2014 CP=     12.578

                                                                               

 
  ***** POST1 NODAL DEGREE OF FREEDOM LISTING *****                            
 
  LOAD STEP=     1  SUBSTEP=     1                                             
   TIME=    1.0000      LOAD CASE=   0                                         
 
    NODE      VOLT  
       1  -860.00    
       2  -860.00    
       3  -860.00    
       4  -629.60    
       5  -400.00    
       6  -860.00    
       7  -860.00    
       8  -860.00    
       9  -400.00    
      10  -400.00    
      11  -860.00    
      12  -860.00    
      13  -860.00    
      14  -629.99    
      15  -400.00    
      16  -400.00    
      17  -400.00    
      18  -400.00    
      19  -400.00    
      20  -400.00    
      21  -1130.0    
      22  -400.00    
      23  -1130.0    
      24  -400.00    
      25  -400.00    
      26  -1130.0    
      27  -1130.0    
      28   0.0000    
      29   0.0000    
      30   0.0000    
      31   0.0000    
      32  -860.00    
      33  -629.40    
      34  -629.93    
      35  -860.00    
      36  -860.00    
      37  -860.00    
      38  -860.00    
      39  -860.00    
1

 ***** ANSYS - ENGINEERING ANALYSIS SYSTEM  RELEASE 15.0      *****
 ANSYS Academic Teaching Advanced                  
 00203145          VERSION=LINUX x64     15:15:26  APR 01, 2014 CP=     12.579

                                                                               

 
  ***** POST1 NODAL DEGREE OF FREEDOM LISTING *****                            
 
  LOAD STEP=     1  SUBSTEP=     1                                             
   TIME=    1.0000      LOAD CASE=   0                                         
 
    NODE      VOLT  
      40  -860.00    
      41  -860.00    
      42  -860.00    
      43  -860.00    
      44  -860.00    
      45  -860.00    
      46  -860.00    
      47  -860.00    
      48  -860.00    
      49  -860.00    
      50  -860.00    
      51  -860.00    
      52  -860.00    
      53  -860.00    
      54  -860.00    
      55  -860.00    
      56  -860.00    
      57  -860.00    
      58  -860.00    
      59  -860.00    
      60  -821.64    
      61  -791.34    
      62  -761.49    
      63  -735.01    
      64  -703.13    
      65  -674.98    
      66  -648.86    
      67  -610.89    
      68  -584.15    
      69  -556.41    
      70  -524.73    
      71  -498.14    
      72  -468.34    
      73  -438.02    
      74  -860.00    
      75  -860.00    
      76  -860.00    
      77  -860.00    
      78  -860.00    
1

 ***** ANSYS - ENGINEERING ANALYSIS SYSTEM  RELEASE 15.0      *****
 ANSYS Academic Teaching Advanced                  
 00203145          VERSION=LINUX x64     15:15:26  APR 01, 2014 CP=     12.580

                                                                               

 
  ***** POST1 NODAL DEGREE OF FREEDOM LISTING *****                            
 
  LOAD STEP=     1  SUBSTEP=     1                                             
   TIME=    1.0000      LOAD CASE=   0                                         
 
    NODE      VOLT  
      79  -860.00    
      80  -860.00    
      81  -860.00    
      82  -860.00    
      83  -860.00    
      84  -860.00    
      85  -860.00    
      86  -860.00    
      87  -860.00    
      88  -860.00    
      89  -860.00    
      90  -860.00    
      91  -860.00    
      92  -860.00    
      93  -860.00    
      94  -860.00    
      95  -860.00    
      96  -860.00    
      97  -827.40    
      98  -794.89    
      99  -750.16    
     100  -705.76    
     101  -629.94    
     102  -554.19    
     103  -509.80    
     104  -465.09    
     105  -432.59    
     106  -827.39    
     107  -794.87    
     108  -750.25    
     109  -705.96    
     110  -629.96    
     111  -553.93    
     112  -509.67    
     113  -465.09    
     114  -432.59    
     115  -860.00    
     116  -860.00    
     117  -860.00    
1

 ***** ANSYS - ENGINEERING ANALYSIS SYSTEM  RELEASE 15.0      *****
 ANSYS Academic Teaching Advanced                  
 00203145          VERSION=LINUX x64     15:15:26  APR 01, 2014 CP=     12.581

                                                                               

 
  ***** POST1 NODAL DEGREE OF FREEDOM LISTING *****                            
 
  LOAD STEP=     1  SUBSTEP=     1                                             
   TIME=    1.0000      LOAD CASE=   0                                         
 
    NODE      VOLT  
     118  -860.00    
     119  -860.00    
     120  -860.00    
     121  -860.00    
     122  -860.00    
     123  -860.00    
     124  -860.00    
     125  -860.00    
     126  -860.00    
     127  -860.00    
     128  -860.00    
     129  -860.00    
     130  -860.00    
     131  -860.00    
     132  -860.00    
     133  -610.63    
     134  -584.12    
     135  -555.96    
     136  -524.12    
     137  -497.80    
     138  -468.31    
     139  -438.11    
     140  -400.00    
     141  -400.00    
     142  -400.00    
     143  -400.00    
     144  -400.00    
     145  -400.00    
     146  -400.00    
     147  -400.00    
     148  -400.00    
     149  -400.00    
     150  -400.00    
     151  -400.00    
     152  -400.00    
     153  -400.00    
     154  -400.00    
     155  -400.00    
     156  -400.00    
1

 ***** ANSYS - ENGINEERING ANALYSIS SYSTEM  RELEASE 15.0      *****
 ANSYS Academic Teaching Advanced                  
 00203145          VERSION=LINUX x64     15:15:26  APR 01, 2014 CP=     12.582

                                                                               

 
  ***** POST1 NODAL DEGREE OF FREEDOM LISTING *****                            
 
  LOAD STEP=     1  SUBSTEP=     1                                             
   TIME=    1.0000      LOAD CASE=   0                                         
 
    NODE      VOLT  
     157  -400.00    
     158  -823.61    
     159  -792.01    
     160  -761.85    
     161  -735.31    
     162  -703.57    
     163  -675.42    
     164  -648.87    
     165  -400.00    
     166  -400.00    
     167  -400.00    
     168  -400.00    
     169  -400.00    
     170  -400.00    
     171  -400.00    
     172  -400.00    
     173  -400.00    
     174  -400.00    
     175  -400.00    
     176  -400.00    
     177  -400.00    
     178  -400.00    
     179  -400.00    
     180  -400.00    
     181  -400.00    
     182  -400.00    
     183  -400.00    
     184  -400.00    
     185  -400.00    
     186  -400.00    
     187  -400.00    
     188  -400.00    
     189  -400.00    
     190  -400.00    
     191  -400.00    
     192  -400.00    
     193  -400.00    
     194  -400.00    
     195  -400.00    
1

 ***** ANSYS - ENGINEERING ANALYSIS SYSTEM  RELEASE 15.0      *****
 ANSYS Academic Teaching Advanced                  
 00203145          VERSION=LINUX x64     15:15:26  APR 01, 2014 CP=     12.583

                                                                               

 
  ***** POST1 NODAL DEGREE OF FREEDOM LISTING *****                            
 
  LOAD STEP=     1  SUBSTEP=     1                                             
   TIME=    1.0000      LOAD CASE=   0                                         
 
    NODE      VOLT  
     196  -400.00    
     197  -400.00    
     198  -400.00    
     199  -400.00    
     200  -400.00    
     201  -400.00    
     202  -400.00    
     203  -400.00    
     204  -400.00    
     205  -400.00    
     206  -400.00    
     207  -400.00    
     208  -400.00    
     209  -400.00    
     210  -400.00    
     211  -400.00    
     212  -400.00    
     213  -400.00    
     214  -400.00    
     215  -400.00    
     216  -400.00    
     217  -400.00    
     218  -400.00    
     219  -400.00    
     220  -400.00    
     221  -400.00    
     222  -400.00    
     223  -400.00    
     224  -400.00    
     225  -400.00    
     226  -400.00    
     227  -400.00    
     228  -400.00    
     229  -400.00    
     230  -400.00    
     231  -400.00    
     232  -400.00    
     233  -400.00    
     234  -858.50    
1

 ***** ANSYS - ENGINEERING ANALYSIS SYSTEM  RELEASE 15.0      *****
 ANSYS Academic Teaching Advanced                  
 00203145          VERSION=LINUX x64     15:15:26  APR 01, 2014 CP=     12.584

                                                                               

 
  ***** POST1 NODAL DEGREE OF FREEDOM LISTING *****                            
 
  LOAD STEP=     1  SUBSTEP=     1                                             
   TIME=    1.0000      LOAD CASE=   0                                         
 
    NODE      VOLT  
     235  -857.07    
     236  -855.30    
     237  -853.87    
     238  -852.39    
     239  -851.54    
     240  -851.20    
     241  -851.75    
     242  -852.56    
     243  -853.70    
     244  -856.07    
     245  -858.62    
     246  -862.27    
     247  -865.94    
     248  -871.10    
     249  -876.26    
     250  -882.78    
     251  -889.30    
     252  -895.96    
     253  -902.63    
     254  -909.29    
     255  -915.96    
     256  -924.61    
     257  -933.26    
     258  -939.93    
     259  -946.59    
     260  -953.26    
     261  -959.93    
     262  -966.59    
     263  -973.26    
     264  -979.93    
     265  -986.60    
     266  -993.26    
     267  -999.93    
     268  -1006.6    
     269  -1013.3    
     270  -1019.9    
     271  -1026.6    
     272  -1033.3    
     273  -1039.9    
1

 ***** ANSYS - ENGINEERING ANALYSIS SYSTEM  RELEASE 15.0      *****
 ANSYS Academic Teaching Advanced                  
 00203145          VERSION=LINUX x64     15:15:26  APR 01, 2014 CP=     12.585

                                                                               

 
  ***** POST1 NODAL DEGREE OF FREEDOM LISTING *****                            
 
  LOAD STEP=     1  SUBSTEP=     1                                             
   TIME=    1.0000      LOAD CASE=   0                                         
 
    NODE      VOLT  
     274  -1046.6    
     275  -1053.3    
     276  -1059.9    
     277  -1066.6    
     278  -1073.3    
     279  -1079.9    
     280  -1086.6    
     281  -1093.3    
     282  -1099.9    
     283  -1106.6    
     284  -1113.3    
     285  -1119.9    
     286  -1125.0    
     287  -400.00    
     288  -400.00    
     289  -400.00    
     290  -400.00    
     291  -400.00    
     292  -400.00    
     293  -400.00    
     294  -400.00    
     295  -400.00    
     296  -400.00    
     297  -400.00    
     298  -400.00    
     299  -400.00    
     300  -400.00    
     301  -400.00    
     302  -400.00    
     303  -400.00    
     304  -400.00    
     305  -400.00    
     306  -400.00    
     307  -400.00    
     308  -400.00    
     309  -400.00    
     310  -858.50    
     311  -857.09    
     312  -855.31    
1

 ***** ANSYS - ENGINEERING ANALYSIS SYSTEM  RELEASE 15.0      *****
 ANSYS Academic Teaching Advanced                  
 00203145          VERSION=LINUX x64     15:15:26  APR 01, 2014 CP=     12.586

                                                                               

 
  ***** POST1 NODAL DEGREE OF FREEDOM LISTING *****                            
 
  LOAD STEP=     1  SUBSTEP=     1                                             
   TIME=    1.0000      LOAD CASE=   0                                         
 
    NODE      VOLT  
     313  -853.83    
     314  -852.32    
     315  -851.44    
     316  -851.04    
     317  -851.37    
     318  -852.30    
     319  -853.64    
     320  -856.07    
     321  -858.64    
     322  -862.27    
     323  -865.94    
     324  -870.98    
     325  -876.03    
     326  -882.26    
     327  -888.50    
     328  -895.15    
     329  -901.80    
     330  -908.47    
     331  -915.13    
     332  -924.20    
     333  -933.26    
     334  -939.93    
     335  -946.59    
     336  -953.26    
     337  -959.93    
     338  -966.59    
     339  -973.26    
     340  -979.93    
     341  -986.60    
     342  -993.26    
     343  -999.93    
     344  -1006.6    
     345  -1013.3    
     346  -1019.9    
     347  -1026.6    
     348  -1033.3    
     349  -1039.9    
     350  -1046.6    
     351  -1053.3    
1

 ***** ANSYS - ENGINEERING ANALYSIS SYSTEM  RELEASE 15.0      *****
 ANSYS Academic Teaching Advanced                  
 00203145          VERSION=LINUX x64     15:15:26  APR 01, 2014 CP=     12.587

                                                                               

 
  ***** POST1 NODAL DEGREE OF FREEDOM LISTING *****                            
 
  LOAD STEP=     1  SUBSTEP=     1                                             
   TIME=    1.0000      LOAD CASE=   0                                         
 
    NODE      VOLT  
     352  -1059.9    
     353  -1066.6    
     354  -1073.3    
     355  -1079.9    
     356  -1086.6    
     357  -1093.3    
     358  -1099.9    
     359  -1106.6    
     360  -1113.3    
     361  -1119.9    
     362  -1125.0    
     363  -400.00    
     364  -400.00    
     365  -400.00    
     366  -400.00    
     367  -400.00    
     368  -400.00    
     369  -400.00    
     370  -400.00    
     371  -400.00    
     372  -400.00    
     373  -400.00    
     374  -400.00    
     375  -400.00    
     376  -400.00    
     377  -400.00    
     378  -400.00    
     379  -400.00    
     380  -400.00    
     381  -1130.0    
     382  -1130.0    
     383  -1130.0    
     384  -1130.0    
     385  -1130.0    
     386  -1130.0    
     387   0.0000    
     388   0.0000    
     389   0.0000    
     390   0.0000    
1

 ***** ANSYS - ENGINEERING ANALYSIS SYSTEM  RELEASE 15.0      *****
 ANSYS Academic Teaching Advanced                  
 00203145          VERSION=LINUX x64     15:15:26  APR 01, 2014 CP=     12.588

                                                                               

 
  ***** POST1 NODAL DEGREE OF FREEDOM LISTING *****                            
 
  LOAD STEP=     1  SUBSTEP=     1                                             
   TIME=    1.0000      LOAD CASE=   0                                         
 
    NODE      VOLT  
     391   0.0000    
     392   0.0000    
     393  -14.591    
     394  -29.182    
     395  -52.474    
     396  -75.766    
     397  -95.094    
     398  -114.42    
     399  -133.75    
     400  -153.08    
     401  -172.40    
     402  -191.73    
     403  -211.06    
     404  -230.38    
     405  -249.67    
     406  -268.96    
     407  -287.71    
     408  -306.46    
     409  -322.86    
     410  -339.27    
     411  -351.54    
     412  -363.82    
     413  -373.06    
     414  -382.52    
     415  -390.58    
     416  -399.89    
     417  -409.34    
     418  -422.65    
     419  -440.35    
     420  -468.22    
     421  -502.75    
     422  -547.07    
     423  -593.48    
     424  -642.09    
     425  -695.06    
     426  -742.74    
     427  -784.84    
     428  -811.50    
     429  -832.04    
1

 ***** ANSYS - ENGINEERING ANALYSIS SYSTEM  RELEASE 15.0      *****
 ANSYS Academic Teaching Advanced                  
 00203145          VERSION=LINUX x64     15:15:26  APR 01, 2014 CP=     12.588

                                                                               

 
  ***** POST1 NODAL DEGREE OF FREEDOM LISTING *****                            
 
  LOAD STEP=     1  SUBSTEP=     1                                             
   TIME=    1.0000      LOAD CASE=   0                                         
 
    NODE      VOLT  
     430  -842.61    
     431  -850.05    
     432  -855.09    
     433  -860.97    
     434  -866.58    
     435  -873.26    
     436  -879.92    
     437  -886.59    
     438  -893.26    
     439  -899.92    
     440  -906.59    
     441  -913.26    
     442  -919.93    
     443  -926.59    
     444  -933.26    
     445  -939.93    
     446  -946.59    
     447  -953.26    
     448  -959.93    
     449  -966.59    
     450  -973.26    
     451  -979.93    
     452  -986.60    
     453  -993.26    
     454  -999.93    
     455  -1006.6    
     456  -1013.3    
     457  -1019.9    
     458  -1026.6    
     459  -1033.3    
     460  -1039.9    
     461  -1046.6    
     462  -1053.3    
     463  -1059.9    
     464  -1066.6    
     465  -1073.3    
     466  -1079.9    
     467  -1086.6    
     468  -1093.3    
1

 ***** ANSYS - ENGINEERING ANALYSIS SYSTEM  RELEASE 15.0      *****
 ANSYS Academic Teaching Advanced                  
 00203145          VERSION=LINUX x64     15:15:26  APR 01, 2014 CP=     12.590

                                                                               

 
  ***** POST1 NODAL DEGREE OF FREEDOM LISTING *****                            
 
  LOAD STEP=     1  SUBSTEP=     1                                             
   TIME=    1.0000      LOAD CASE=   0                                         
 
    NODE      VOLT  
     469  -1099.9    
     470  -1106.6    
     471  -1113.3    
     472  -1119.9    
     473  -1125.0    
     474  -1125.0    
     475  -1119.9    
     476  -1112.1    
     477  -1104.3    
     478  -1097.7    
     479  -1091.0    
     480  -1084.3    
     481  -1077.7    
     482  -1071.0    
     483  -1064.3    
     484  -1057.7    
     485  -1051.0    
     486  -1044.3    
     487  -1037.7    
     488  -1031.0    
     489  -1024.3    
     490  -1017.7    
     491  -1011.0    
     492  -1004.3    
     493  -997.68    
     494  -991.01    
     495  -984.34    
     496  -977.68    
     497  -971.01    
     498  -964.34    
     499  -957.67    
     500  -951.01    
     501  -944.34    
     502  -937.67    
     503  -931.01    
     504  -924.34    
     505  -917.67    
     506  -911.01    
     507  -904.34    
1

 ***** ANSYS - ENGINEERING ANALYSIS SYSTEM  RELEASE 15.0      *****
 ANSYS Academic Teaching Advanced                  
 00203145          VERSION=LINUX x64     15:15:26  APR 01, 2014 CP=     12.591

                                                                               

 
  ***** POST1 NODAL DEGREE OF FREEDOM LISTING *****                            
 
  LOAD STEP=     1  SUBSTEP=     1                                             
   TIME=    1.0000      LOAD CASE=   0                                         
 
    NODE      VOLT  
     508  -897.68    
     509  -891.02    
     510  -884.51    
     511  -878.01    
     512  -872.65    
     513  -867.28    
     514  -863.26    
     515  -859.18    
     516  -856.06    
     517  -852.55    
     518  -848.46    
     519  -842.85    
     520  -835.39    
     521  -823.10    
     522  -804.39    
     523  -773.88    
     524  -737.89    
     525  -693.07    
     526  -645.15    
     527  -596.11    
     528  -540.41    
     529  -493.72    
     530  -454.92    
     531  -430.03    
     532  -410.42    
     533  -398.68    
     534  -385.00    
     535  -373.27    
     536  -355.81    
     537  -338.42    
     538  -319.09    
     539  -299.76    
     540  -280.44    
     541  -261.11    
     542  -241.78    
     543  -222.46    
     544  -203.13    
     545  -183.80    
     546  -164.47    
1

 ***** ANSYS - ENGINEERING ANALYSIS SYSTEM  RELEASE 15.0      *****
 ANSYS Academic Teaching Advanced                  
 00203145          VERSION=LINUX x64     15:15:26  APR 01, 2014 CP=     12.592

                                                                               

 
  ***** POST1 NODAL DEGREE OF FREEDOM LISTING *****                            
 
  LOAD STEP=     1  SUBSTEP=     1                                             
   TIME=    1.0000      LOAD CASE=   0                                         
 
    NODE      VOLT  
     547  -145.15    
     548  -125.82    
     549  -106.49    
     550  -87.164    
     551  -67.837    
     552  -48.509    
     553  -29.182    
     554  -14.591    
     555  -400.45    
     556  -400.83    
     557  -401.19    
     558  -401.29    
     559  -400.80    
     560  -399.63    
     561  -397.23    
     562  -394.11    
     563  -389.72    
     564  -384.91    
     565  -377.49    
     566  -369.96    
     567  -359.32    
     568  -348.65    
     569  -333.67    
     570  -318.70    
     571  -299.56    
     572  -280.43    
     573  -261.10    
     574  -241.77    
     575  -227.28    
     576  -212.79    
     577  -198.29    
     578  -183.80    
     579  -164.47    
     580  -145.15    
     581  -125.82    
     582  -106.49    
     583  -87.164    
     584  -67.837    
     585  -48.509    
1

 ***** ANSYS - ENGINEERING ANALYSIS SYSTEM  RELEASE 15.0      *****
 ANSYS Academic Teaching Advanced                  
 00203145          VERSION=LINUX x64     15:15:26  APR 01, 2014 CP=     12.592

                                                                               

 
  ***** POST1 NODAL DEGREE OF FREEDOM LISTING *****                            
 
  LOAD STEP=     1  SUBSTEP=     1                                             
   TIME=    1.0000      LOAD CASE=   0                                         
 
    NODE      VOLT  
     586  -29.182    
     587  -14.591    
     588  -400.46    
     589  -400.84    
     590  -401.21    
     591  -401.28    
     592  -400.78    
     593  -399.52    
     594  -397.20    
     595  -394.22    
     596  -389.72    
     597  -384.93    
     598  -377.60    
     599  -370.05    
     600  -359.35    
     601  -348.64    
     602  -333.83    
     603  -319.02    
     604  -300.88    
     605  -282.73    
     606  -263.45    
     607  -244.17    
     608  -224.85    
     609  -205.52    
     610  -190.43    
     611  -175.33    
     612  -160.24    
     613  -145.15    
     614  -125.82    
     615  -106.49    
     616  -87.164    
     617  -67.837    
     618  -48.509    
     619  -29.182    
     620  -14.591    
     621  -860.00    
     622  -860.00    
     623  -860.00    
     624  -860.00    
1

 ***** ANSYS - ENGINEERING ANALYSIS SYSTEM  RELEASE 15.0      *****
 ANSYS Academic Teaching Advanced                  
 00203145          VERSION=LINUX x64     15:15:26  APR 01, 2014 CP=     12.594

                                                                               

 
  ***** POST1 NODAL DEGREE OF FREEDOM LISTING *****                            
 
  LOAD STEP=     1  SUBSTEP=     1                                             
   TIME=    1.0000      LOAD CASE=   0                                         
 
    NODE      VOLT  
     625  -860.00    
     626  -860.00    
     627  -860.00    
     628  -860.00    
     629  -860.00    
     630  -860.00    
     631  -860.00    
     632  -860.00    
     633  -860.00    
     634  -860.00    
     635  -860.00    
     636  -860.00    
     637  -860.00    
     638  -860.00    
     639  -860.00    
     640  -629.73    
     641  -629.94    
     642  -629.93    
     643  -629.95    
     644  -629.97    
     645  -630.00    
     646  -630.01    
     647  -630.01    
     648  -629.99    
     649  -629.95    
     650  -629.76    
     651  -821.36    
     652  -791.09    
     653  -761.72    
     654  -735.50    
     655  -704.30    
     656  -676.58    
     657  -649.12    
     658  -860.00    
     659  -860.00    
     660  -860.00    
     661  -860.00    
     662  -860.00    
     663  -860.00    
1

 ***** ANSYS - ENGINEERING ANALYSIS SYSTEM  RELEASE 15.0      *****
 ANSYS Academic Teaching Advanced                  
 00203145          VERSION=LINUX x64     15:15:26  APR 01, 2014 CP=     12.594

                                                                               

 
  ***** POST1 NODAL DEGREE OF FREEDOM LISTING *****                            
 
  LOAD STEP=     1  SUBSTEP=     1                                             
   TIME=    1.0000      LOAD CASE=   0                                         
 
    NODE      VOLT  
     664  -860.00    
     665  -860.00    
     666  -860.00    
     667  -860.00    
     668  -860.00    
     669  -860.00    
     670  -860.00    
     671  -860.00    
     672  -860.00    
     673  -860.00    
     674  -860.00    
     675  -860.00    
     676  -860.00    
     677  -400.00    
     678  -400.00    
     679  -400.00    
     680  -400.00    
     681  -400.00    
     682  -400.00    
     683  -400.00    
     684  -400.00    
     685  -400.00    
     686  -400.00    
     687  -400.00    
     688  -400.00    
     689  -400.00    
     690  -400.00    
     691  -400.00    
     692  -400.00    
     693  -400.00    
     694  -400.00    
     695  -400.00    
     696  -629.89    
     697  -629.91    
     698  -629.92    
     699  -629.88    
     700  -629.90    
     701  -629.79    
     702  -629.87    
1

 ***** ANSYS - ENGINEERING ANALYSIS SYSTEM  RELEASE 15.0      *****
 ANSYS Academic Teaching Advanced                  
 00203145          VERSION=LINUX x64     15:15:26  APR 01, 2014 CP=     12.595

                                                                               

 
  ***** POST1 NODAL DEGREE OF FREEDOM LISTING *****                            
 
  LOAD STEP=     1  SUBSTEP=     1                                             
   TIME=    1.0000      LOAD CASE=   0                                         
 
    NODE      VOLT  
     703  -629.82    
     704  -629.85    
     705  -629.88    
     706  -629.89    
     707  -821.65    
     708  -791.35    
     709  -761.74    
     710  -735.57    
     711  -704.23    
     712  -676.53    
     713  -649.22    
     714  -400.00    
     715  -400.00    
     716  -400.00    
     717  -400.00    
     718  -400.00    
     719  -400.00    
     720  -400.00    
     721  -400.00    
     722  -400.00    
     723  -400.00    
     724  -400.00    
     725  -400.00    
     726  -400.00    
     727  -400.00    
     728  -400.00    
     729  -400.00    
     730  -400.00    
     731  -400.00    
     732  -400.00    
     733  -860.00    
     734  -860.00    
     735  -860.00    
     736  -860.00    
     737  -860.00    
     738  -860.00    
     739  -860.00    
     740  -860.00    
     741  -860.00    
1

 ***** ANSYS - ENGINEERING ANALYSIS SYSTEM  RELEASE 15.0      *****
 ANSYS Academic Teaching Advanced                  
 00203145          VERSION=LINUX x64     15:15:26  APR 01, 2014 CP=     12.596

                                                                               

 
  ***** POST1 NODAL DEGREE OF FREEDOM LISTING *****                            
 
  LOAD STEP=     1  SUBSTEP=     1                                             
   TIME=    1.0000      LOAD CASE=   0                                         
 
    NODE      VOLT  
     742  -860.00    
     743  -860.00    
     744  -860.00    
     745  -860.00    
     746  -860.00    
     747  -860.00    
     748  -860.00    
     749  -860.00    
     750  -860.00    
     751  -860.00    
     752  -860.00    
     753  -860.00    
     754  -860.00    
     755  -860.00    
     756  -860.00    
     757  -860.00    
     758  -860.00    
     759  -860.00    
     760  -860.00    
     761  -860.00    
     762  -860.00    
     763  -860.00    
     764  -860.00    
     765  -860.00    
     766  -860.00    
     767  -860.00    
     768  -860.00    
     769  -860.00    
     770  -860.00    
     771  -860.00    
     772  -860.00    
     773  -860.00    
     774  -860.00    
     775  -860.00    
     776  -860.00    
     777  -860.00    
     778  -860.00    
     779  -860.00    
     780  -860.00    
1

 ***** ANSYS - ENGINEERING ANALYSIS SYSTEM  RELEASE 15.0      *****
 ANSYS Academic Teaching Advanced                  
 00203145          VERSION=LINUX x64     15:15:26  APR 01, 2014 CP=     12.598

                                                                               

 
  ***** POST1 NODAL DEGREE OF FREEDOM LISTING *****                            
 
  LOAD STEP=     1  SUBSTEP=     1                                             
   TIME=    1.0000      LOAD CASE=   0                                         
 
    NODE      VOLT  
     781  -860.00    
     782  -860.00    
     783  -860.00    
     784  -860.00    
     785  -860.00    
     786  -860.00    
     787  -860.00    
     788  -860.00    
     789  -860.00    
     790  -860.00    
     791  -860.00    
     792  -860.00    
     793  -860.00    
     794  -860.00    
     795  -860.00    
     796  -860.00    
     797  -860.00    
     798  -860.00    
     799  -860.00    
     800  -860.00    
     801  -860.00    
     802  -860.00    
     803  -860.00    
     804  -860.00    
     805  -860.00    
     806  -860.00    
     807  -860.00    
     808  -860.00    
     809  -860.00    
     810  -860.00    
     811  -860.00    
     812  -860.00    
     813  -860.00    
     814  -860.00    
     815  -860.00    
     816  -400.00    
     817  -400.00    
     818  -400.00    
     819  -400.00    
1

 ***** ANSYS - ENGINEERING ANALYSIS SYSTEM  RELEASE 15.0      *****
 ANSYS Academic Teaching Advanced                  
 00203145          VERSION=LINUX x64     15:15:26  APR 01, 2014 CP=     12.598

                                                                               

 
  ***** POST1 NODAL DEGREE OF FREEDOM LISTING *****                            
 
  LOAD STEP=     1  SUBSTEP=     1                                             
   TIME=    1.0000      LOAD CASE=   0                                         
 
    NODE      VOLT  
     820  -400.00    
     821  -400.00    
     822  -400.00    
     823  -400.00    
     824  -400.00    
     825  -400.00    
     826  -400.00    
     827  -400.00    
     828  -400.00    
     829  -400.00    
     830  -400.00    
     831  -400.00    
     832  -400.00    
     833  -400.00    
     834  -400.00    
     835  -610.45    
     836  -582.94    
     837  -555.37    
     838  -524.41    
     839  -498.10    
     840  -468.25    
     841  -437.71    
     842  -400.00    
     843  -400.00    
     844  -400.00    
     845  -400.00    
     846  -400.00    
     847  -400.00    
     848  -400.00    
     849  -400.00    
     850  -400.00    
     851  -400.00    
     852  -400.00    
     853  -400.00    
     854  -400.00    
     855  -400.00    
     856  -400.00    
     857  -400.00    
     858  -400.00    
1

 ***** ANSYS - ENGINEERING ANALYSIS SYSTEM  RELEASE 15.0      *****
 ANSYS Academic Teaching Advanced                  
 00203145          VERSION=LINUX x64     15:15:26  APR 01, 2014 CP=     12.600

                                                                               

 
  ***** POST1 NODAL DEGREE OF FREEDOM LISTING *****                            
 
  LOAD STEP=     1  SUBSTEP=     1                                             
   TIME=    1.0000      LOAD CASE=   0                                         
 
    NODE      VOLT  
     859  -400.00    
     860  -400.00    
     861  -860.00    
     862  -860.00    
     863  -860.00    
     864  -860.00    
     865  -860.00    
     866  -860.00    
     867  -860.00    
     868  -860.00    
     869  -860.00    
     870  -860.00    
     871  -860.00    
     872  -860.00    
     873  -860.00    
     874  -860.00    
     875  -860.00    
     876  -860.00    
     877  -860.00    
     878  -860.00    
     879  -860.00    
     880  -610.25    
     881  -582.94    
     882  -555.38    
     883  -524.43    
     884  -498.02    
     885  -468.10    
     886  -437.54    
     887  -559.38    
     888  -575.63    
     889  -561.27    
     890  -569.63    
     891  -441.58    
     892  -583.70    
     893  -596.10    
     894  -478.26    
     895  -460.99    
     896  -428.96    
     897  -461.34    
1

 ***** ANSYS - ENGINEERING ANALYSIS SYSTEM  RELEASE 15.0      *****
 ANSYS Academic Teaching Advanced                  
 00203145          VERSION=LINUX x64     15:15:26  APR 01, 2014 CP=     12.600

                                                                               

 
  ***** POST1 NODAL DEGREE OF FREEDOM LISTING *****                            
 
  LOAD STEP=     1  SUBSTEP=     1                                             
   TIME=    1.0000      LOAD CASE=   0                                         
 
    NODE      VOLT  
     898  -429.74    
     899  -597.16    
     900  -594.89    
     901  -618.89    
     902  -618.79    
     903  -576.80    
     904  -618.32    
     905  -593.29    
     906  -618.18    
     907  -555.26    
     908  -538.69    
     909  -541.57    
     910  -531.73    
     911  -529.57    
     912  -531.13    
     913  -543.89    
     914  -541.65    
     915  -562.76    
     916  -567.02    
     917  -569.22    
     918  -567.96    
     919  -563.07    
     920  -563.77    
     921  -510.74    
     922  -510.41    
     923  -515.40    
     924  -515.29    
     925  -511.94    
     926  -513.71    
     927  -501.85    
     928  -503.09    
     929  -508.14    
     930  -508.58    
     931  -502.85    
     932  -518.19    
     933  -532.14    
     934  -513.92    
     935  -498.02    
     936  -484.61    
1

 ***** ANSYS - ENGINEERING ANALYSIS SYSTEM  RELEASE 15.0      *****
 ANSYS Academic Teaching Advanced                  
 00203145          VERSION=LINUX x64     15:15:26  APR 01, 2014 CP=     12.601

                                                                               

 
  ***** POST1 NODAL DEGREE OF FREEDOM LISTING *****                            
 
  LOAD STEP=     1  SUBSTEP=     1                                             
   TIME=    1.0000      LOAD CASE=   0                                         
 
    NODE      VOLT  
     937  -591.57    
     938  -589.37    
     939  -587.32    
     940  -479.87    
     941  -485.29    
     942  -485.87    
     943  -483.87    
     944  -480.60    
     945  -478.85    
     946  -472.96    
     947  -513.14    
     948  -572.93    
     949  -543.24    
     950  -512.88    
     951  -485.36    
     952  -612.98    
     953  -612.82    
     954  -614.73    
     955  -614.48    
     956  -611.25    
     957  -611.05    
     958  -613.11    
     959  -612.64    
     960  -442.39    
     961  -441.56    
     962  -447.91    
     963  -449.50    
     964  -450.00    
     965  -447.83    
     966  -449.59    
     967  -449.15    
     968  -445.49    
     969  -446.31    
     970  -445.53    
     971  -444.53    
     972  -444.39    
     973  -443.70    
     974  -437.91    
     975  -437.65    
1

 ***** ANSYS - ENGINEERING ANALYSIS SYSTEM  RELEASE 15.0      *****
 ANSYS Academic Teaching Advanced                  
 00203145          VERSION=LINUX x64     15:15:26  APR 01, 2014 CP=     12.602

                                                                               

 
  ***** POST1 NODAL DEGREE OF FREEDOM LISTING *****                            
 
  LOAD STEP=     1  SUBSTEP=     1                                             
   TIME=    1.0000      LOAD CASE=   0                                         
 
    NODE      VOLT  
     976  -537.18    
     977  -566.71    
     978  -471.16    
     979  -500.54    
     980  -473.17    
     981  -547.82    
     982  -467.14    
     983  -477.30    
     984  -478.61    
     985  -481.58    
     986  -484.97    
     987  -484.90    
     988  -484.21    
     989  -588.81    
     990  -583.91    
     991  -592.97    
     992  -588.39    
     993  -500.68    
     994  -560.49    
     995  -525.62    
     996  -535.26    
     997  -522.91    
     998  -539.38    
     999  -542.37    
    1000  -533.92    
    1001  -602.13    
    1002  -604.23    
    1003  -453.37    
    1004  -584.97    
    1005  -465.09    
    1006  -638.69    
    1007  -812.96    
    1008  -436.62    
    1009  -822.73    
    1010  -694.40    
    1011  -618.86    
    1012  -642.61    
    1013  -589.26    
    1014  -545.92    
1

 ***** ANSYS - ENGINEERING ANALYSIS SYSTEM  RELEASE 15.0      *****
 ANSYS Academic Teaching Advanced                  
 00203145          VERSION=LINUX x64     15:15:26  APR 01, 2014 CP=     12.603

                                                                               

 
  ***** POST1 NODAL DEGREE OF FREEDOM LISTING *****                            
 
  LOAD STEP=     1  SUBSTEP=     1                                             
   TIME=    1.0000      LOAD CASE=   0                                         
 
    NODE      VOLT  
    1015  -719.97    
    1016  -681.33    
    1017  -567.10    
    1018  -527.29    
    1019  -613.24    
    1020  -654.90    
    1021  -716.21    
    1022  -666.82    
    1023  -709.31    
    1024  -782.72    
    1025  -492.44    
    1026  -790.18    
    1027  -745.51    
    1028  -513.85    
    1029  -469.17    
    1030  -549.71    
    1031  -822.00    
    1032  -816.45    
    1033  -818.80    
    1034  -437.29    
    1035  -457.88    
    1036  -460.89    
    1037  -757.53    
    1038  -787.02    
    1039  -489.35    
    1040  -516.79    
    1041  -822.38    
    1042  -822.59    
    1043  -436.76    
    1044  -436.95    
    1045  -473.49    
    1046  -785.21    
    1047  -515.26    
    1048  -776.16    
    1049  -652.23    
    1050  -656.58    
    1051  -580.17    
    1052  -712.51    
    1053  -700.45    
1

 ***** ANSYS - ENGINEERING ANALYSIS SYSTEM  RELEASE 15.0      *****
 ANSYS Academic Teaching Advanced                  
 00203145          VERSION=LINUX x64     15:15:26  APR 01, 2014 CP=     12.604

                                                                               

 
  ***** POST1 NODAL DEGREE OF FREEDOM LISTING *****                            
 
  LOAD STEP=     1  SUBSTEP=     1                                             
   TIME=    1.0000      LOAD CASE=   0                                         
 
    NODE      VOLT  
    1054  -711.49    
    1055  -672.43    
    1056  -642.38    
    1057  -818.73    
    1058  -821.52    
    1059  -738.24    
    1060  -670.14    
    1061  -651.13    
    1062  -638.91    
    1063  -662.19    
    1064  -638.87    
    1065  -717.05    
    1066  -709.87    
    1067  -709.03    
    1068  -709.71    
    1069  -712.32    
    1070  -734.43    
    1071  -737.64    
    1072  -737.40    
    1073  -732.66    
    1074  -738.02    
    1075  -710.49    
    1076  -689.08    
    1077  -689.97    
    1078  -725.61    
    1079  -716.45    
    1080  -689.15    
    1081  -756.82    
    1082  -758.17    
    1083  -756.60    
    1084  -757.65    
    1085  -762.49    
    1086  -762.48    
    1087  -757.37    
    1088  -756.62    
    1089  -756.88    
    1090  -758.15    
    1091  -763.44    
    1092  -766.98    
1

 ***** ANSYS - ENGINEERING ANALYSIS SYSTEM  RELEASE 15.0      *****
 ANSYS Academic Teaching Advanced                  
 00203145          VERSION=LINUX x64     15:15:26  APR 01, 2014 CP=     12.604

                                                                               

 
  ***** POST1 NODAL DEGREE OF FREEDOM LISTING *****                            
 
  LOAD STEP=     1  SUBSTEP=     1                                             
   TIME=    1.0000      LOAD CASE=   0                                         
 
    NODE      VOLT  
    1093  -667.93    
    1094  -665.96    
    1095  -671.67    
    1096  -671.12    
    1097  -669.14    
    1098  -669.36    
    1099  -745.89    
    1100  -670.71    
    1101  -782.37    
    1102  -779.91    
    1103  -782.65    
    1104  -783.60    
    1105  -782.81    
    1106  -783.52    
    1107  -788.62    
    1108  -653.44    
    1109  -649.05    
    1110  -651.44    
    1111  -651.88    
    1112  -686.65    
    1113  -749.72    
    1114  -642.46    
    1115  -667.58    
    1116  -791.63    
    1117  -762.45    
    1118  -711.79    
    1119  -682.65    
    1120  -819.60    
    1121  -819.00    
    1122  -813.79    
    1123  -813.82    
    1124  -816.66    
    1125  -816.31    
    1126  -816.12    
    1127  -815.08    
    1128  -817.06    
    1129  -816.88    
    1130  -815.68    
    1131  -817.62    
1

 ***** ANSYS - ENGINEERING ANALYSIS SYSTEM  RELEASE 15.0      *****
 ANSYS Academic Teaching Advanced                  
 00203145          VERSION=LINUX x64     15:15:26  APR 01, 2014 CP=     12.605

                                                                               

 
  ***** POST1 NODAL DEGREE OF FREEDOM LISTING *****                            
 
  LOAD STEP=     1  SUBSTEP=     1                                             
   TIME=    1.0000      LOAD CASE=   0                                         
 
    NODE      VOLT  
    1132  -817.49    
    1133  -816.54    
    1134  -820.97    
    1135  -822.55    
    1136  -637.46    
    1137  -637.14    
    1138  -638.96    
    1139  -638.93    
    1140  -639.36    
    1141  -639.48    
    1142  -639.41    
    1143  -639.30    
    1144  -759.99    
    1145  -789.09    
    1146  -694.94    
    1147  -725.03    
    1148  -716.52    
    1149  -787.95    
    1150  -652.37    
    1151  -652.75    
    1152  -651.57    
    1153  -647.66    
    1154  -793.22    
    1155  -785.71    
    1156  -782.81    
    1157  -784.07    
    1158  -784.44    
    1159  -782.23    
    1160  -779.24    
    1161  -692.01    
    1162  -660.57    
    1163  -688.35    
    1164  -693.69    
    1165  -687.00    
    1166  -743.49    
    1167  -733.65    
    1168  -733.31    
    1169  -742.63    
    1170  -733.67    
1

 ***** ANSYS - ENGINEERING ANALYSIS SYSTEM  RELEASE 15.0      *****
 ANSYS Academic Teaching Advanced                  
 00203145          VERSION=LINUX x64     15:15:26  APR 01, 2014 CP=     12.607

                                                                               

 
  ***** POST1 NODAL DEGREE OF FREEDOM LISTING *****                            
 
  LOAD STEP=     1  SUBSTEP=     1                                             
   TIME=    1.0000      LOAD CASE=   0                                         
 
    NODE      VOLT  
    1171  -736.40    
    1172  -650.94    
    1173  -705.94    
    1174  -526.93    
    1175  -672.18    
    1176  -584.01    
    1177  -753.61    
    1178  -771.39    
    1179  -436.19    
    1180  -454.69    
    1181  -629.85    
    1182  -808.02    
    1183  -580.07    
    1184  -573.99    
    1185  -685.53    
    1186  -442.93    
    1187  -454.76    
    1188  -453.66    
    1189  -449.98    
    1190  -417.43    
    1191  -417.43    
    1192  -810.56    
    1193  -843.51    
    1194  -810.94    
    1195  -843.51    
    1196  -567.17    
    1197  -565.66    
    1198  -652.53    
    1199  -693.82    
    1200  -632.53    
    1201  -534.06    
    1202  -620.85    
    1203  -532.43    
    1204  -533.47    
    1205  -625.99    
    1206  -580.05    
    1207  -544.27    
    1208  -627.01    
    1209  -620.67    
1

 ***** ANSYS - ENGINEERING ANALYSIS SYSTEM  RELEASE 15.0      *****
 ANSYS Academic Teaching Advanced                  
 00203145          VERSION=LINUX x64     15:15:26  APR 01, 2014 CP=     12.608

                                                                               

 
  ***** POST1 NODAL DEGREE OF FREEDOM LISTING *****                            
 
  LOAD STEP=     1  SUBSTEP=     1                                             
   TIME=    1.0000      LOAD CASE=   0                                         
 
    NODE      VOLT  
    1210  -536.08    
    1211  -576.57    
    1212  -694.62    
    1213  -657.73    
    1214  -601.88    
    1215  -487.29    
    1216  -496.48    
    1217  -500.56    
    1218  -640.39    
    1219  -590.15    
    1220  -535.14    
    1221  -737.70    
    1222  -631.46    
    1223  -621.82    
    1224  -715.16    
    1225  -667.78    
    1226  -572.31    
    1227  -701.64    
    1228  -705.61    
    1229  -700.71    
    1230  -666.57    
    1231  -647.40    
    1232  -685.19    
    1233  -743.85    
    1234  -744.39    
    1235  -711.34    
    1236  -705.81    
    1237  -744.26    
    1238  -699.32    
    1239  -743.34    
    1240  -703.89    
    1241  -698.50    
    1242  -742.38    
    1243  -480.69    
    1244  -749.88    
    1245  -794.49    
    1246  -468.78    
    1247  -513.32    
    1248  -780.88    
1

 ***** ANSYS - ENGINEERING ANALYSIS SYSTEM  RELEASE 15.0      *****
 ANSYS Academic Teaching Advanced                  
 00203145          VERSION=LINUX x64     15:15:26  APR 01, 2014 CP=     12.608

                                                                               

 
  ***** POST1 NODAL DEGREE OF FREEDOM LISTING *****                            
 
  LOAD STEP=     1  SUBSTEP=     1                                             
   TIME=    1.0000      LOAD CASE=   0                                         
 
    NODE      VOLT  
    1249  -776.17    
    1250  -771.25    
    1251  -770.73    
    1252  -776.17    
    1253  -776.05    
    1254  -770.48    
    1255  -770.23    
    1256  -774.87    
    1257  -774.99    
    1258  -769.39    
    1259  -771.02    
    1260  -803.65    
    1261  -808.39    
    1262  -803.12    
    1263  -802.46    
    1264  -802.11    
    1265  -802.09    
    1266  -804.14    
    1267  -788.02    
    1268  -827.01    
    1269  -827.04    
    1270  -827.07    
    1271  -836.55    
    1272  -836.57    
    1273  -831.80    
    1274  -831.82    
    1275  -831.27    
    1276  -831.28    
    1277  -831.16    
    1278  -831.15    
    1279  -830.93    
    1280  -830.88    
    1281  -831.15    
    1282  -830.99    
    1283  -833.06    
    1284  -832.59    
    1285  -814.61    
    1286  -811.76    
    1287  -507.91    
1

 ***** ANSYS - ENGINEERING ANALYSIS SYSTEM  RELEASE 15.0      *****
 ANSYS Academic Teaching Advanced                  
 00203145          VERSION=LINUX x64     15:15:26  APR 01, 2014 CP=     12.609

                                                                               

 
  ***** POST1 NODAL DEGREE OF FREEDOM LISTING *****                            
 
  LOAD STEP=     1  SUBSTEP=     1                                             
   TIME=    1.0000      LOAD CASE=   0                                         
 
    NODE      VOLT  
    1288  -478.98    
    1289  -783.46    
    1290  -755.17    
    1291  -436.28    
    1292  -436.22    
    1293  -436.26    
    1294  -444.50    
    1295  -444.54    
    1296  -442.89    
    1297  -442.90    
    1298  -442.88    
    1299  -454.19    
    1300  -453.88    
    1301  -450.80    
    1302  -448.12    
    1303  -497.19    
    1304  -507.71    
    1305  -485.71    
    1306  -488.93    
    1307  -472.41    
    1308  -768.25    
    1309  -805.87    
    1310  -802.21    
    1311  -801.85    
    1312  -802.33    
    1313  -802.58    
    1314  -803.65    
    1315  -813.13    
    1316  -794.15    
    1317  -736.63    
    1318  -747.90    
    1319  -738.68    
    1320  -749.81    
    1321  -738.94    
    1322  -748.73    
    1323  -660.07    
    1324  -672.96    
    1325  -635.05    
    1326  -662.59    
1

 ***** ANSYS - ENGINEERING ANALYSIS SYSTEM  RELEASE 15.0      *****
 ANSYS Academic Teaching Advanced                  
 00203145          VERSION=LINUX x64     15:15:26  APR 01, 2014 CP=     12.610

                                                                               

 
  ***** POST1 NODAL DEGREE OF FREEDOM LISTING *****                            
 
  LOAD STEP=     1  SUBSTEP=     1                                             
   TIME=    1.0000      LOAD CASE=   0                                         
 
    NODE      VOLT  
    1327  -681.75    
    1328  -581.10    
    1329  -599.17    
    1330  -629.96    
    1331  -581.09    
    1332  -579.06    
    1333  -827.04    
    1334  -434.84    
    1335  -400.00    
    1336  -400.00    
    1337  -400.00    
    1338  -400.00    
    1339  -400.00    
    1340  -400.00    
    1341  -400.00    
    1342  -400.00    
    1343  -400.00    
    1344  -400.00    
    1345  -400.00    
    1346  -400.00    
    1347  -400.00    
    1348  -400.00    
    1349  -400.00    
    1350  -400.00    
    1351  -400.00    
    1352  -400.00    
    1353  -400.00    
    1354  -400.00    
    1355  -400.00    
    1356  -400.00    
    1357  -400.00    
    1358  -400.00    
    1359  -400.00    
    1360  -400.00    
    1361  -400.00    
    1362  -400.00    
    1363  -400.00    
    1364  -400.00    
    1365  -400.00    
1

 ***** ANSYS - ENGINEERING ANALYSIS SYSTEM  RELEASE 15.0      *****
 ANSYS Academic Teaching Advanced                  
 00203145          VERSION=LINUX x64     15:15:26  APR 01, 2014 CP=     12.611

                                                                               

 
  ***** POST1 NODAL DEGREE OF FREEDOM LISTING *****                            
 
  LOAD STEP=     1  SUBSTEP=     1                                             
   TIME=    1.0000      LOAD CASE=   0                                         
 
    NODE      VOLT  
    1366  -400.00    
    1367  -400.00    
    1368  -400.00    
    1369  -400.00    
    1370  -400.00    
    1371  -400.00    
    1372  -400.00    
    1373  -400.00    
    1374  -400.00    
    1375  -400.00    
    1376  -400.00    
    1377  -400.00    
    1378  -400.00    
    1379  -400.00    
    1380  -400.00    
    1381  -400.00    
    1382  -400.00    
    1383  -400.00    
    1384  -400.00    
    1385  -400.00    
    1386  -400.00    
    1387  -400.00    
    1388  -400.00    
    1389  -400.00    
    1390  -400.00    
    1391  -400.00    
    1392  -400.00    
    1393  -400.00    
    1394  -400.00    
    1395  -400.00    
    1396  -400.00    
    1397  -400.00    
    1398  -400.00    
    1399  -400.00    
    1400  -400.00    
    1401  -400.00    
    1402  -400.00    
    1403  -400.00    
    1404  -400.00    
1

 ***** ANSYS - ENGINEERING ANALYSIS SYSTEM  RELEASE 15.0      *****
 ANSYS Academic Teaching Advanced                  
 00203145          VERSION=LINUX x64     15:15:26  APR 01, 2014 CP=     12.612

                                                                               

 
  ***** POST1 NODAL DEGREE OF FREEDOM LISTING *****                            
 
  LOAD STEP=     1  SUBSTEP=     1                                             
   TIME=    1.0000      LOAD CASE=   0                                         
 
    NODE      VOLT  
    1405  -400.00    
    1406  -400.00    
    1407  -400.00    
    1408  -400.00    
    1409  -400.00    
    1410  -400.00    
    1411  -400.00    
    1412  -400.00    
    1413  -400.00    
    1414  -400.00    
    1415  -400.00    
    1416  -400.00    
    1417  -400.00    
    1418  -400.00    
    1419  -400.00    
    1420  -400.00    
    1421  -400.00    
    1422  -400.00    
    1423  -400.00    
    1424  -400.00    
    1425  -400.00    
    1426  -400.00    
    1427  -400.00    
    1428  -400.00    
    1429  -400.00    
    1430  -400.00    
    1431  -400.00    
    1432  -400.00    
    1433  -400.00    
    1434  -400.00    
    1435  -400.00    
    1436  -400.00    
    1437  -400.00    
    1438  -400.00    
    1439  -400.00    
    1440  -400.00    
    1441  -400.00    
    1442  -400.00    
    1443  -400.00    
1

 ***** ANSYS - ENGINEERING ANALYSIS SYSTEM  RELEASE 15.0      *****
 ANSYS Academic Teaching Advanced                  
 00203145          VERSION=LINUX x64     15:15:26  APR 01, 2014 CP=     12.613

                                                                               

 
  ***** POST1 NODAL DEGREE OF FREEDOM LISTING *****                            
 
  LOAD STEP=     1  SUBSTEP=     1                                             
   TIME=    1.0000      LOAD CASE=   0                                         
 
    NODE      VOLT  
    1444  -400.00    
    1445  -400.00    
    1446  -400.00    
    1447  -400.00    
    1448  -400.00    
    1449  -400.00    
    1450  -400.00    
    1451  -400.00    
    1452  -400.00    
    1453  -400.00    
    1454  -400.00    
    1455  -400.00    
    1456  -400.00    
    1457  -400.00    
    1458  -400.00    
    1459  -400.00    
    1460  -400.00    
    1461  -400.00    
    1462  -400.00    
    1463  -400.00    
    1464  -400.00    
    1465  -400.00    
    1466  -400.00    
    1467  -400.00    
    1468  -400.00    
    1469  -400.00    
    1470  -400.00    
    1471  -400.00    
    1472  -400.00    
    1473  -400.00    
    1474  -400.00    
    1475  -400.00    
    1476  -400.00    
    1477  -400.00    
    1478  -400.00    
    1479  -400.00    
    1480  -400.00    
    1481  -400.00    
    1482  -400.00    
1

 ***** ANSYS - ENGINEERING ANALYSIS SYSTEM  RELEASE 15.0      *****
 ANSYS Academic Teaching Advanced                  
 00203145          VERSION=LINUX x64     15:15:26  APR 01, 2014 CP=     12.614

                                                                               

 
  ***** POST1 NODAL DEGREE OF FREEDOM LISTING *****                            
 
  LOAD STEP=     1  SUBSTEP=     1                                             
   TIME=    1.0000      LOAD CASE=   0                                         
 
    NODE      VOLT  
    1483  -400.00    
    1484  -400.00    
    1485  -400.00    
    1486  -400.00    
    1487  -400.00    
    1488  -400.00    
    1489  -400.00    
    1490  -400.00    
    1491  -400.00    
    1492  -400.00    
    1493  -400.00    
    1494  -400.00    
    1495  -400.00    
    1496  -400.00    
    1497  -400.00    
    1498  -400.00    
    1499  -400.00    
    1500  -400.00    
    1501  -400.00    
    1502  -400.00    
    1503  -400.00    
    1504  -400.00    
    1505  -400.00    
    1506  -400.00    
    1507  -400.00    
    1508  -400.00    
    1509  -400.00    
    1510  -400.00    
    1511  -400.00    
    1512  -400.00    
    1513  -400.00    
    1514  -400.00    
    1515  -400.00    
    1516  -400.00    
    1517  -400.00    
    1518  -400.00    
    1519  -400.00    
    1520  -400.00    
    1521  -400.00    
1

 ***** ANSYS - ENGINEERING ANALYSIS SYSTEM  RELEASE 15.0      *****
 ANSYS Academic Teaching Advanced                  
 00203145          VERSION=LINUX x64     15:15:26  APR 01, 2014 CP=     12.615

                                                                               

 
  ***** POST1 NODAL DEGREE OF FREEDOM LISTING *****                            
 
  LOAD STEP=     1  SUBSTEP=     1                                             
   TIME=    1.0000      LOAD CASE=   0                                         
 
    NODE      VOLT  
    1522  -400.00    
    1523  -400.00    
    1524  -400.00    
    1525  -400.00    
    1526  -400.00    
    1527  -400.00    
    1528  -400.00    
    1529  -400.00    
    1530  -400.00    
    1531  -400.00    
    1532  -400.00    
    1533  -400.00    
    1534  -400.00    
    1535  -400.00    
    1536  -400.00    
    1537  -400.00    
    1538  -400.00    
    1539  -400.00    
    1540  -400.00    
    1541  -400.00    
    1542  -400.00    
    1543  -400.00    
    1544  -400.00    
    1545  -400.00    
    1546  -400.00    
    1547  -400.00    
    1548  -400.00    
    1549  -400.00    
    1550  -400.00    
    1551  -400.00    
    1552  -400.00    
    1553  -400.00    
    1554  -400.00    
    1555  -400.00    
    1556  -400.00    
    1557  -400.00    
    1558  -400.00    
    1559  -400.00    
    1560  -400.00    
1

 ***** ANSYS - ENGINEERING ANALYSIS SYSTEM  RELEASE 15.0      *****
 ANSYS Academic Teaching Advanced                  
 00203145          VERSION=LINUX x64     15:15:26  APR 01, 2014 CP=     12.616

                                                                               

 
  ***** POST1 NODAL DEGREE OF FREEDOM LISTING *****                            
 
  LOAD STEP=     1  SUBSTEP=     1                                             
   TIME=    1.0000      LOAD CASE=   0                                         
 
    NODE      VOLT  
    1561  -400.00    
    1562  -400.00    
    1563  -400.00    
    1564  -400.00    
    1565  -400.00    
    1566  -400.00    
    1567  -400.00    
    1568  -400.00    
    1569  -400.00    
    1570  -400.00    
    1571  -400.00    
    1572  -400.00    
    1573  -400.00    
    1574  -400.00    
    1575  -400.00    
    1576  -400.00    
    1577  -400.00    
    1578  -400.00    
    1579  -400.00    
    1580  -400.00    
    1581  -400.00    
    1582  -400.00    
    1583  -400.00    
    1584  -400.00    
    1585  -400.00    
    1586  -400.00    
    1587  -400.00    
    1588  -400.00    
    1589  -400.00    
    1590  -400.00    
    1591  -400.00    
    1592  -400.00    
    1593  -400.00    
    1594  -400.00    
    1595  -400.00    
    1596  -400.00    
    1597  -400.00    
    1598  -400.00    
    1599  -400.00    
1

 ***** ANSYS - ENGINEERING ANALYSIS SYSTEM  RELEASE 15.0      *****
 ANSYS Academic Teaching Advanced                  
 00203145          VERSION=LINUX x64     15:15:26  APR 01, 2014 CP=     12.617

                                                                               

 
  ***** POST1 NODAL DEGREE OF FREEDOM LISTING *****                            
 
  LOAD STEP=     1  SUBSTEP=     1                                             
   TIME=    1.0000      LOAD CASE=   0                                         
 
    NODE      VOLT  
    1600  -400.00    
    1601  -400.00    
    1602  -400.00    
    1603  -400.00    
    1604  -400.00    
    1605  -400.00    
    1606  -400.00    
    1607  -400.00    
    1608  -400.00    
    1609  -400.00    
    1610  -400.00    
    1611  -400.00    
    1612  -400.00    
    1613  -400.00    
    1614  -400.00    
    1615  -400.00    
    1616  -400.00    
    1617  -400.00    
    1618  -400.00    
    1619  -400.00    
    1620  -400.00    
    1621  -400.00    
    1622  -400.00    
    1623  -400.00    
    1624  -400.00    
    1625  -400.00    
    1626  -400.00    
    1627  -400.00    
    1628  -400.00    
    1629  -400.00    
    1630  -400.00    
    1631  -400.00    
    1632  -400.00    
    1633  -400.00    
    1634  -400.00    
    1635  -400.00    
    1636  -400.00    
    1637  -400.00    
    1638  -400.00    
1

 ***** ANSYS - ENGINEERING ANALYSIS SYSTEM  RELEASE 15.0      *****
 ANSYS Academic Teaching Advanced                  
 00203145          VERSION=LINUX x64     15:15:26  APR 01, 2014 CP=     12.618

                                                                               

 
  ***** POST1 NODAL DEGREE OF FREEDOM LISTING *****                            
 
  LOAD STEP=     1  SUBSTEP=     1                                             
   TIME=    1.0000      LOAD CASE=   0                                         
 
    NODE      VOLT  
    1639  -400.00    
    1640  -400.00    
    1641  -400.00    
    1642  -400.00    
    1643  -400.00    
    1644  -400.00    
    1645  -400.00    
    1646  -400.00    
    1647  -400.00    
    1648  -400.00    
    1649  -400.00    
    1650  -400.00    
    1651  -400.00    
    1652  -400.00    
    1653  -400.00    
    1654  -400.00    
    1655  -400.00    
    1656  -400.00    
    1657  -400.00    
    1658  -400.00    
    1659  -400.00    
    1660  -400.00    
    1661  -400.00    
    1662  -400.00    
    1663  -400.00    
    1664  -400.00    
    1665  -400.00    
    1666  -400.00    
    1667  -400.00    
    1668  -400.00    
    1669  -400.00    
    1670  -400.00    
    1671  -400.00    
    1672  -400.00    
    1673  -400.00    
    1674  -400.00    
    1675  -400.00    
    1676  -400.00    
    1677  -400.00    
1

 ***** ANSYS - ENGINEERING ANALYSIS SYSTEM  RELEASE 15.0      *****
 ANSYS Academic Teaching Advanced                  
 00203145          VERSION=LINUX x64     15:15:26  APR 01, 2014 CP=     12.619

                                                                               

 
  ***** POST1 NODAL DEGREE OF FREEDOM LISTING *****                            
 
  LOAD STEP=     1  SUBSTEP=     1                                             
   TIME=    1.0000      LOAD CASE=   0                                         
 
    NODE      VOLT  
    1678  -400.00    
    1679  -400.00    
    1680  -400.00    
    1681  -400.00    
    1682  -400.00    
    1683  -400.00    
    1684  -400.00    
    1685  -400.00    
    1686  -400.00    
    1687  -400.00    
    1688  -400.00    
    1689  -400.00    
    1690  -400.00    
    1691  -400.00    
    1692  -400.00    
    1693  -400.00    
    1694  -400.00    
    1695  -400.00    
    1696  -400.00    
    1697  -400.00    
    1698  -400.00    
    1699  -400.00    
    1700  -400.00    
    1701  -400.00    
    1702  -400.00    
    1703  -400.00    
    1704  -400.00    
    1705  -400.00    
    1706  -400.00    
    1707  -400.00    
    1708  -400.00    
    1709  -400.00    
    1710  -400.00    
    1711  -400.00    
    1712  -400.00    
    1713  -400.00    
    1714  -400.00    
    1715  -400.00    
    1716  -400.00    
1

 ***** ANSYS - ENGINEERING ANALYSIS SYSTEM  RELEASE 15.0      *****
 ANSYS Academic Teaching Advanced                  
 00203145          VERSION=LINUX x64     15:15:26  APR 01, 2014 CP=     12.620

                                                                               

 
  ***** POST1 NODAL DEGREE OF FREEDOM LISTING *****                            
 
  LOAD STEP=     1  SUBSTEP=     1                                             
   TIME=    1.0000      LOAD CASE=   0                                         
 
    NODE      VOLT  
    1717  -400.00    
    1718  -400.00    
    1719  -400.00    
    1720  -400.00    
    1721  -400.00    
    1722  -400.00    
    1723  -400.00    
    1724  -400.00    
    1725  -400.00    
    1726  -400.00    
    1727  -400.00    
    1728  -400.00    
    1729  -400.00    
    1730  -400.00    
    1731  -400.00    
    1732  -400.00    
    1733  -400.00    
    1734  -400.00    
    1735  -400.00    
    1736  -400.00    
    1737  -400.00    
    1738  -400.00    
    1739  -400.00    
    1740  -400.00    
    1741  -400.00    
    1742  -400.00    
    1743  -400.00    
    1744  -400.00    
    1745  -400.00    
    1746  -400.00    
    1747  -400.00    
    1748  -400.00    
    1749  -400.00    
    1750  -400.00    
    1751  -400.00    
    1752  -400.00    
    1753  -400.00    
    1754  -400.00    
    1755  -400.00    
1

 ***** ANSYS - ENGINEERING ANALYSIS SYSTEM  RELEASE 15.0      *****
 ANSYS Academic Teaching Advanced                  
 00203145          VERSION=LINUX x64     15:15:26  APR 01, 2014 CP=     12.621

                                                                               

 
  ***** POST1 NODAL DEGREE OF FREEDOM LISTING *****                            
 
  LOAD STEP=     1  SUBSTEP=     1                                             
   TIME=    1.0000      LOAD CASE=   0                                         
 
    NODE      VOLT  
    1756  -400.00    
    1757  -400.00    
    1758  -400.00    
    1759  -400.00    
    1760  -400.00    
    1761  -400.00    
    1762  -400.00    
    1763  -400.00    
    1764  -400.00    
    1765  -400.00    
    1766  -400.00    
    1767  -400.00    
    1768  -400.00    
    1769  -400.00    
    1770  -400.00    
    1771  -400.00    
    1772  -400.00    
    1773  -400.00    
    1774  -559.62    
    1775  -575.86    
    1776  -561.39    
    1777  -569.70    
    1778  -441.92    
    1779  -583.95    
    1780  -596.21    
    1781  -478.89    
    1782  -461.62    
    1783  -429.79    
    1784  -461.57    
    1785  -430.01    
    1786  -597.38    
    1787  -595.02    
    1788  -619.11    
    1789  -619.07    
    1790  -576.84    
    1791  -618.21    
    1792  -593.32    
    1793  -618.29    
    1794  -555.39    
1

 ***** ANSYS - ENGINEERING ANALYSIS SYSTEM  RELEASE 15.0      *****
 ANSYS Academic Teaching Advanced                  
 00203145          VERSION=LINUX x64     15:15:26  APR 01, 2014 CP=     12.622

                                                                               

 
  ***** POST1 NODAL DEGREE OF FREEDOM LISTING *****                            
 
  LOAD STEP=     1  SUBSTEP=     1                                             
   TIME=    1.0000      LOAD CASE=   0                                         
 
    NODE      VOLT  
    1795  -538.67    
    1796  -541.51    
    1797  -531.81    
    1798  -529.72    
    1799  -531.38    
    1800  -544.20    
    1801  -541.60    
    1802  -562.81    
    1803  -567.01    
    1804  -569.22    
    1805  -568.02    
    1806  -563.17    
    1807  -563.91    
    1808  -510.96    
    1809  -510.30    
    1810  -515.34    
    1811  -515.39    
    1812  -511.97    
    1813  -513.79    
    1814  -502.35    
    1815  -503.00    
    1816  -508.51    
    1817  -509.07    
    1818  -503.33    
    1819  -518.09    
    1820  -532.60    
    1821  -514.28    
    1822  -498.44    
    1823  -484.88    
    1824  -591.60    
    1825  -589.43    
    1826  -587.47    
    1827  -479.82    
    1828  -485.58    
    1829  -485.91    
    1830  -483.76    
    1831  -481.13    
    1832  -479.53    
    1833  -473.41    
1

 ***** ANSYS - ENGINEERING ANALYSIS SYSTEM  RELEASE 15.0      *****
 ANSYS Academic Teaching Advanced                  
 00203145          VERSION=LINUX x64     15:15:26  APR 01, 2014 CP=     12.623

                                                                               

 
  ***** POST1 NODAL DEGREE OF FREEDOM LISTING *****                            
 
  LOAD STEP=     1  SUBSTEP=     1                                             
   TIME=    1.0000      LOAD CASE=   0                                         
 
    NODE      VOLT  
    1834  -513.24    
    1835  -573.14    
    1836  -543.66    
    1837  -513.46    
    1838  -485.66    
    1839  -612.98    
    1840  -613.02    
    1841  -614.67    
    1842  -614.63    
    1843  -611.07    
    1844  -611.09    
    1845  -613.06    
    1846  -612.81    
    1847  -441.87    
    1848  -442.13    
    1849  -447.76    
    1850  -449.48    
    1851  -448.77    
    1852  -447.74    
    1853  -449.98    
    1854  -449.25    
    1855  -448.01    
    1856  -447.25    
    1857  -446.45    
    1858  -445.85    
    1859  -444.53    
    1860  -445.64    
    1861  -438.56    
    1862  -437.70    
    1863  -537.15    
    1864  -566.74    
    1865  -471.32    
    1866  -500.60    
    1867  -473.26    
    1868  -547.82    
    1869  -467.55    
    1870  -477.99    
    1871  -479.59    
    1872  -481.07    
1

 ***** ANSYS - ENGINEERING ANALYSIS SYSTEM  RELEASE 15.0      *****
 ANSYS Academic Teaching Advanced                  
 00203145          VERSION=LINUX x64     15:15:26  APR 01, 2014 CP=     12.624

                                                                               

 
  ***** POST1 NODAL DEGREE OF FREEDOM LISTING *****                            
 
  LOAD STEP=     1  SUBSTEP=     1                                             
   TIME=    1.0000      LOAD CASE=   0                                         
 
    NODE      VOLT  
    1873  -484.96    
    1874  -485.63    
    1875  -484.16    
    1876  -588.92    
    1877  -584.03    
    1878  -593.00    
    1879  -588.49    
    1880  -501.12    
    1881  -560.72    
    1882  -525.93    
    1883  -535.44    
    1884  -522.97    
    1885  -539.47    
    1886  -542.22    
    1887  -533.90    
    1888  -602.20    
    1889  -604.55    
    1890  -454.20    
    1891  -588.97    
    1892  -620.89    
    1893  -618.84    
    1894  -464.95    
    1895  -627.58    
    1896  -816.74    
    1897  -436.64    
    1898  -822.70    
    1899  -630.05    
    1900  -544.05    
    1901  -672.05    
    1902  -733.04    
    1903  -733.56    
    1904  -694.64    
    1905  -565.46    
    1906  -526.06    
    1907  -602.11    
    1908  -574.26    
    1909  -652.41    
    1910  -640.89    
    1911  -490.95    
1

 ***** ANSYS - ENGINEERING ANALYSIS SYSTEM  RELEASE 15.0      *****
 ANSYS Academic Teaching Advanced                  
 00203145          VERSION=LINUX x64     15:15:26  APR 01, 2014 CP=     12.625

                                                                               

 
  ***** POST1 NODAL DEGREE OF FREEDOM LISTING *****                            
 
  LOAD STEP=     1  SUBSTEP=     1                                             
   TIME=    1.0000      LOAD CASE=   0                                         
 
    NODE      VOLT  
    1912  -718.17    
    1913  -785.26    
    1914  -790.13    
    1915  -745.54    
    1916  -513.76    
    1917  -469.20    
    1918  -672.70    
    1919  -702.07    
    1920  -549.68    
    1921  -437.24    
    1922  -456.68    
    1923  -459.95    
    1924  -760.93    
    1925  -790.60    
    1926  -822.04    
    1927  -819.54    
    1928  -821.51    
    1929  -489.62    
    1930  -517.04    
    1931  -436.78    
    1932  -436.97    
    1933  -822.37    
    1934  -822.56    
    1935  -785.15    
    1936  -473.58    
    1937  -513.99    
    1938  -782.25    
    1939  -660.39    
    1940  -624.56    
    1941  -577.55    
    1942  -682.92    
    1943  -712.97    
    1944  -700.40    
    1945  -711.19    
    1946  -672.42    
    1947  -642.23    
    1948  -822.17    
    1949  -817.75    
    1950  -738.02    
1

 ***** ANSYS - ENGINEERING ANALYSIS SYSTEM  RELEASE 15.0      *****
 ANSYS Academic Teaching Advanced                  
 00203145          VERSION=LINUX x64     15:15:26  APR 01, 2014 CP=     12.626

                                                                               

 
  ***** POST1 NODAL DEGREE OF FREEDOM LISTING *****                            
 
  LOAD STEP=     1  SUBSTEP=     1                                             
   TIME=    1.0000      LOAD CASE=   0                                         
 
    NODE      VOLT  
    1951  -669.94    
    1952  -651.06    
    1953  -638.89    
    1954  -661.93    
    1955  -638.73    
    1956  -717.13    
    1957  -709.59    
    1958  -709.32    
    1959  -709.53    
    1960  -712.26    
    1961  -734.95    
    1962  -737.94    
    1963  -737.17    
    1964  -732.18    
    1965  -737.58    
    1966  -710.66    
    1967  -689.16    
    1968  -690.13    
    1969  -725.82    
    1970  -716.39    
    1971  -689.10    
    1972  -756.72    
    1973  -758.53    
    1974  -757.24    
    1975  -757.98    
    1976  -762.44    
    1977  -762.21    
    1978  -756.99    
    1979  -756.17    
    1980  -756.22    
    1981  -757.92    
    1982  -763.39    
    1983  -766.97    
    1984  -667.92    
    1985  -665.91    
    1986  -671.85    
    1987  -671.25    
    1988  -669.11    
    1989  -669.39    
1

 ***** ANSYS - ENGINEERING ANALYSIS SYSTEM  RELEASE 15.0      *****
 ANSYS Academic Teaching Advanced                  
 00203145          VERSION=LINUX x64     15:15:26  APR 01, 2014 CP=     12.627

                                                                               

 
  ***** POST1 NODAL DEGREE OF FREEDOM LISTING *****                            
 
  LOAD STEP=     1  SUBSTEP=     1                                             
   TIME=    1.0000      LOAD CASE=   0                                         
 
    NODE      VOLT  
    1990  -745.79    
    1991  -670.60    
    1992  -781.94    
    1993  -780.10    
    1994  -782.77    
    1995  -783.41    
    1996  -782.41    
    1997  -783.19    
    1998  -788.65    
    1999  -653.29    
    2000  -649.04    
    2001  -651.45    
    2002  -651.87    
    2003  -686.68    
    2004  -749.64    
    2005  -642.49    
    2006  -667.63    
    2007  -791.98    
    2008  -762.23    
    2009  -711.54    
    2010  -682.38    
    2011  -816.77    
    2012  -816.68    
    2013  -813.52    
    2014  -814.62    
    2015  -817.82    
    2016  -816.92    
    2017  -816.27    
    2018  -815.33    
    2019  -816.70    
    2020  -817.57    
    2021  -816.71    
    2022  -817.02    
    2023  -817.73    
    2024  -818.04    
    2025  -822.78    
    2026  -822.57    
    2027  -637.32    
    2028  -637.21    
1

 ***** ANSYS - ENGINEERING ANALYSIS SYSTEM  RELEASE 15.0      *****
 ANSYS Academic Teaching Advanced                  
 00203145          VERSION=LINUX x64     15:15:26  APR 01, 2014 CP=     12.628

                                                                               

 
  ***** POST1 NODAL DEGREE OF FREEDOM LISTING *****                            
 
  LOAD STEP=     1  SUBSTEP=     1                                             
   TIME=    1.0000      LOAD CASE=   0                                         
 
    NODE      VOLT  
    2029  -638.91    
    2030  -638.87    
    2031  -639.39    
    2032  -639.52    
    2033  -639.26    
    2034  -639.23    
    2035  -759.87    
    2036  -788.83    
    2037  -694.96    
    2038  -724.96    
    2039  -716.64    
    2040  -787.81    
    2041  -652.31    
    2042  -652.78    
    2043  -651.60    
    2044  -647.50    
    2045  -793.68    
    2046  -785.72    
    2047  -781.84    
    2048  -783.71    
    2049  -784.48    
    2050  -782.79    
    2051  -778.62    
    2052  -691.86    
    2053  -660.47    
    2054  -688.37    
    2055  -693.97    
    2056  -686.99    
    2057  -743.35    
    2058  -733.01    
    2059  -732.89    
    2060  -742.53    
    2061  -734.34    
    2062  -736.79    
    2063  -650.85    
    2064  -584.37    
    2065  -664.76    
    2066  -772.04    
    2067  -759.60    
1

 ***** ANSYS - ENGINEERING ANALYSIS SYSTEM  RELEASE 15.0      *****
 ANSYS Academic Teaching Advanced                  
 00203145          VERSION=LINUX x64     15:15:26  APR 01, 2014 CP=     12.629

                                                                               

 
  ***** POST1 NODAL DEGREE OF FREEDOM LISTING *****                            
 
  LOAD STEP=     1  SUBSTEP=     1                                             
   TIME=    1.0000      LOAD CASE=   0                                         
 
    NODE      VOLT  
    2068  -441.06    
    2069  -744.17    
    2070  -771.62    
    2071  -465.18    
    2072  -639.15    
    2073  -812.01    
    2074  -765.62    
    2075  -415.67    
    2076  -440.54    
    2077  -462.05    
    2078  -448.23    
    2079  -415.67    
    2080  -415.68    
    2081  -801.51    
    2082  -833.43    
    2083  -800.89    
    2084  -833.43    
    2085  -589.10    
    2086  -576.09    
    2087  -529.09    
    2088  -531.37    
    2089  -526.43    
    2090  -721.11    
    2091  -682.00    
    2092  -766.26    
    2093  -714.52    
    2094  -529.14    
    2095  -528.01    
    2096  -529.86    
    2097  -624.85    
    2098  -655.18    
    2099  -624.87    
    2100  -614.45    
    2101  -539.34    
    2102  -560.46    
    2103  -709.31    
    2104  -484.62    
    2105  -479.26    
    2106  -480.70    
1

 ***** ANSYS - ENGINEERING ANALYSIS SYSTEM  RELEASE 15.0      *****
 ANSYS Academic Teaching Advanced                  
 00203145          VERSION=LINUX x64     15:15:26  APR 01, 2014 CP=     12.630

                                                                               

 
  ***** POST1 NODAL DEGREE OF FREEDOM LISTING *****                            
 
  LOAD STEP=     1  SUBSTEP=     1                                             
   TIME=    1.0000      LOAD CASE=   0                                         
 
    NODE      VOLT  
    2107  -495.45    
    2108  -591.00    
    2109  -666.72    
    2110  -660.10    
    2111  -606.84    
    2112  -580.96    
    2113  -619.31    
    2114  -639.21    
    2115  -624.11    
    2116  -624.93    
    2117  -577.55    
    2118  -545.32    
    2119  -720.25    
    2120  -677.53    
    2121  -668.05    
    2122  -626.15    
    2123  -618.03    
    2124  -714.71    
    2125  -705.19    
    2126  -700.34    
    2127  -673.64    
    2128  -698.68    
    2129  -743.19    
    2130  -705.97    
    2131  -744.98    
    2132  -712.57    
    2133  -707.75    
    2134  -746.76    
    2135  -707.66    
    2136  -747.52    
    2137  -713.19    
    2138  -708.29    
    2139  -748.07    
    2140  -695.17    
    2141  -666.77    
    2142  -550.48    
    2143  -478.89    
    2144  -523.51    
    2145  -780.20    
1

 ***** ANSYS - ENGINEERING ANALYSIS SYSTEM  RELEASE 15.0      *****
 ANSYS Academic Teaching Advanced                  
 00203145          VERSION=LINUX x64     15:15:26  APR 01, 2014 CP=     12.631

                                                                               

 
  ***** POST1 NODAL DEGREE OF FREEDOM LISTING *****                            
 
  LOAD STEP=     1  SUBSTEP=     1                                             
   TIME=    1.0000      LOAD CASE=   0                                         
 
    NODE      VOLT  
    2146  -775.72    
    2147  -770.85    
    2148  -770.24    
    2149  -776.88    
    2150  -777.34    
    2151  -772.49    
    2152  -772.48    
    2153  -778.10    
    2154  -778.41    
    2155  -773.32    
    2156  -775.53    
    2157  -804.31    
    2158  -807.95    
    2159  -802.83    
    2160  -802.67    
    2161  -803.16    
    2162  -803.55    
    2163  -806.37    
    2164  -792.47    
    2165  -786.66    
    2166  -757.36    
    2167  -516.71    
    2168  -488.90    
    2169  -446.37    
    2170  -446.41    
    2171  -438.40    
    2172  -438.32    
    2173  -438.35    
    2174  -441.03    
    2175  -441.03    
    2176  -441.02    
    2177  -440.12    
    2178  -439.88    
    2179  -460.76    
    2180  -457.37    
    2181  -828.00    
    2182  -828.03    
    2183  -828.05    
    2184  -836.21    
1

 ***** ANSYS - ENGINEERING ANALYSIS SYSTEM  RELEASE 15.0      *****
 ANSYS Academic Teaching Advanced                  
 00203145          VERSION=LINUX x64     15:15:26  APR 01, 2014 CP=     12.633

                                                                               

 
  ***** POST1 NODAL DEGREE OF FREEDOM LISTING *****                            
 
  LOAD STEP=     1  SUBSTEP=     1                                             
   TIME=    1.0000      LOAD CASE=   0                                         
 
    NODE      VOLT  
    2185  -836.23    
    2186  -831.69    
    2187  -831.72    
    2188  -831.08    
    2189  -831.09    
    2190  -831.55    
    2191  -831.54    
    2192  -831.58    
    2193  -831.53    
    2194  -831.98    
    2195  -831.82    
    2196  -834.48    
    2197  -833.98    
    2198  -817.76    
    2199  -815.14    
    2200  -773.88    
    2201  -808.72    
    2202  -803.85    
    2203  -803.15    
    2204  -803.12    
    2205  -802.20    
    2206  -803.45    
    2207  -812.47    
[...]
 
    NODE      VOLT  
   11545  -858.20    
   11546  -858.35    
   11547  -858.47    
   11548  -857.82    
   11549  -858.45    
   11550  -857.89    
   11551  -858.42    
   11552  -509.96    
   11553  -845.31    
   11554  -856.01    
   11555  -857.07    
   11556  -855.78    
   11557  -857.21    
   11558  -858.53    
   11559  -858.47    
   11560  -856.56    
   11561  -855.22    
   11562  -854.62    
   11563  -858.28    
   11564  -858.09    
   11565  -854.56    
   11566  -854.89    
   11567  -854.28    
   11568  -648.80    
   11569  -637.33    
   11570  -639.43    
   11571  -449.59    
   11572  -504.43    
   11573  -518.51    
   11574  -463.99    
   11575  -473.84    
   11576  -526.38    
   11577  -527.34    
   11578  -575.77    
   11579  -486.01    
   11580  -423.93    
   11581  -447.39    
   11582  -401.81    
   11583  -400.77    
1

 ***** ANSYS - ENGINEERING ANALYSIS SYSTEM  RELEASE 15.0      *****
 ANSYS Academic Teaching Advanced                  
 00203145          VERSION=LINUX x64     15:15:26  APR 01, 2014 CP=     12.884

                                                                               

 
  ***** POST1 NODAL DEGREE OF FREEDOM LISTING *****                            
 
  LOAD STEP=     1  SUBSTEP=     1                                             
   TIME=    1.0000      LOAD CASE=   0                                         
 
    NODE      VOLT  
   11584  -400.63    
   11585  -401.43    
   11586  -402.06    
   11587  -400.80    
   11588  -508.55    
   11589  -489.05    
   11590  -512.65    
   11591  -490.85    
   11592  -533.08    
   11593  -482.64    
   11594  -586.46    
   11595  -849.77    
   11596  -854.88    
   11597  -857.55    
   11598  -858.01    
   11599  -853.94    
   11600  -857.11    
   11601  -857.53    
   11602  -856.56    
   11603  -400.32    
   11604  -694.10    
   11605  -404.33    
   11606  -733.97    
   11607  -854.88    
   11608  -682.23    
   11609  -708.50    
   11610  -400.48    
   11611  -674.82    
   11612  -717.78    
   11613  -664.83    
   11614  -712.88    
   11615  -698.46    
   11616  -748.05    
   11617  -686.95    
   11618  -678.65    
   11619  -683.04    
   11620  -675.95    
   11621  -677.27    
   11622  -657.31    
1

 ***** ANSYS - ENGINEERING ANALYSIS SYSTEM  RELEASE 15.0      *****
 ANSYS Academic Teaching Advanced                  
 00203145          VERSION=LINUX x64     15:15:26  APR 01, 2014 CP=     12.886

                                                                               

 
  ***** POST1 NODAL DEGREE OF FREEDOM LISTING *****                            
 
  LOAD STEP=     1  SUBSTEP=     1                                             
   TIME=    1.0000      LOAD CASE=   0                                         
 
    NODE      VOLT  
   11623  -651.33    
   11624  -678.11    
   11625  -643.39    
   11626  -697.16    
   11627  -689.58    
   11628  -681.21    
   11629  -711.25    
   11630  -648.55    
   11631  -733.55    
   11632  -839.21    
   11633  -837.52    
   11634  -832.17    
   11635  -714.48    
   11636  -661.93    
   11637  -668.07    
   11638  -666.52    
   11639  -694.55    
   11640  -667.84    
   11641  -766.07    
   11642  -778.76    
   11643  -791.39    
   11644  -826.15    
   11645  -833.59    
   11646  -806.38    
   11647  -810.77    
   11648  -811.70    
   11649  -796.63    
   11650  -745.63    
   11651  -712.67    
   11652  -28.482    
   11653  -13.132    
   11654  -29.941    
   11655  -37.237    
   11656  -29.941    
   11657  -37.237    
   11658  -28.482    
   11659  -13.132    
   11660  -56.564    
   11661  -37.237    
1

 ***** ANSYS - ENGINEERING ANALYSIS SYSTEM  RELEASE 15.0      *****
 ANSYS Academic Teaching Advanced                  
 00203145          VERSION=LINUX x64     15:15:26  APR 01, 2014 CP=     12.887

                                                                               

 
  ***** POST1 NODAL DEGREE OF FREEDOM LISTING *****                            
 
  LOAD STEP=     1  SUBSTEP=     1                                             
   TIME=    1.0000      LOAD CASE=   0                                         
 
    NODE      VOLT  
   11662  -37.237    
   11663  -13.132    
   11664  -60.529    
   11665  -56.564    
   11666  -71.801    
   11667  -410.05    
   11668  -400.92    
   11669  -400.42    
   11670  -400.46    
   11671  -400.63    
   11672  -401.47    
   11673  -401.01    
   11674  -819.76    
   11675  -812.63    
   11676  -857.51    
   11677  -858.35    
   11678  -858.59    
   11679  -857.03    
   11680  -858.24    
   11681  -858.56    
   11682  -857.04    
   11683  -858.41    
   11684  -853.31    
   11685  -855.69    
   11686  -858.45    
   11687  -858.44    
   11688  -857.13    
   11689  -858.59    
   11690  -857.93    
   11691  -858.48    
   11692  -857.78    
   11693  -858.03    
   11694  -858.42    
   11695  -782.98    
   11696  -784.57    
   11697  -782.72    
   11698  -805.16    
   11699  -855.78    
   11700  -857.29    
1

 ***** ANSYS - ENGINEERING ANALYSIS SYSTEM  RELEASE 15.0      *****
 ANSYS Academic Teaching Advanced                  
 00203145          VERSION=LINUX x64     15:15:26  APR 01, 2014 CP=     12.887

                                                                               

 
  ***** POST1 NODAL DEGREE OF FREEDOM LISTING *****                            
 
  LOAD STEP=     1  SUBSTEP=     1                                             
   TIME=    1.0000      LOAD CASE=   0                                         
 
    NODE      VOLT  
   11701  -858.13    
   11702  -858.08    
   11703  -856.36    
   11704  -857.80    
   11705  -858.31    
   11706  -855.18    
   11707  -856.29    
   11708  -858.75    
   11709  -858.05    
   11710  -858.36    
   11711  -858.26    
   11712  -799.45    
   11713  -826.67    
   11714  -400.53    
   11715  -445.76    
   11716  -423.62    
   11717  -437.77    
   11718  -417.97    
   11719  -400.24    
   11720  -696.43    
   11721  -641.10    
   11722  -613.80    
   11723  -759.34    
   11724  -729.50    
   11725  -842.66    
   11726  -758.83    
   11727  -729.27    
   11728  -828.76    
   11729  -771.62    
   11730  -522.00    
   11731  -547.02    
   11732  -726.02    
   11733  -751.10    
   11734  -665.51    
   11735  -545.76    
   11736  -560.03    
   11737  -551.69    
   11738  -845.18    
   11739  -854.73    
1

 ***** ANSYS - ENGINEERING ANALYSIS SYSTEM  RELEASE 15.0      *****
 ANSYS Academic Teaching Advanced                  
 00203145          VERSION=LINUX x64     15:15:26  APR 01, 2014 CP=     12.888

                                                                               

 
  ***** POST1 NODAL DEGREE OF FREEDOM LISTING *****                            
 
  LOAD STEP=     1  SUBSTEP=     1                                             
   TIME=    1.0000      LOAD CASE=   0                                         
 
    NODE      VOLT  
   11740  -857.89    
   11741  -855.11    
   11742  -767.87    
   11743  -838.03    
   11744  -832.18    
   11745  -792.87    
   11746  -779.37    
   11747  -806.39    
   11748  -856.08    
   11749  -851.91    
   11750  -856.70    
   11751  -856.50    
   11752  -858.36    
   11753  -858.43    
   11754  -858.35    
   11755  -835.95    
   11756  -426.06    
   11757  -471.38    
   11758  -450.10    
   11759  -445.21    
   11760  -454.37    
   11761  -424.32    
   11762  -412.53    
   11763  -412.69    
   11764  -431.29    
   11765  -460.21    
   11766  -458.40    
   11767  -464.93    
   11768  -837.51    
   11769  -838.44    
   11770  -829.43    
   11771  -829.71    
   11772  -858.34    
   11773  -858.34    
   11774  -857.05    
   11775  -856.83    
   11776  -857.10    
   11777  -857.49    
   11778  -858.40    
1

 ***** ANSYS - ENGINEERING ANALYSIS SYSTEM  RELEASE 15.0      *****
 ANSYS Academic Teaching Advanced                  
 00203145          VERSION=LINUX x64     15:15:26  APR 01, 2014 CP=     12.889

                                                                               

 
  ***** POST1 NODAL DEGREE OF FREEDOM LISTING *****                            
 
  LOAD STEP=     1  SUBSTEP=     1                                             
   TIME=    1.0000      LOAD CASE=   0                                         
 
    NODE      VOLT  
   11779  -857.36    
   11780  -1125.5    
   11781  -858.02    
   11782  -858.32    
   11783  -858.23    
   11784  -857.13    
   11785  -857.95    
   11786  -857.57    
   11787  -853.08    
   11788  -854.07    
   11789  -851.80    
   11790  -843.85    
   11791  -847.21    
   11792  -837.18    
   11793  -845.81    
   11794  -821.50    
   11795  -832.75    
   11796  -819.73    
   11797  -824.79    
   11798  -846.65    
   11799  -820.52    
   11800  -446.81    
   11801  -452.89    
   11802  -432.84    
   11803  -435.12    
   11804  -428.53    
   11805  -426.88    
   11806  -844.34    
   11807  -857.58    
   11808  -857.82    
   11809  -852.79    
   11810  -852.73    
   11811  -850.66    
   11812  -851.28    
   11813  -850.27    
   11814  -851.91    
   11815  -858.11    
   11816  -790.92    
   11817  -837.32    
1

 ***** ANSYS - ENGINEERING ANALYSIS SYSTEM  RELEASE 15.0      *****
 ANSYS Academic Teaching Advanced                  
 00203145          VERSION=LINUX x64     15:15:26  APR 01, 2014 CP=     12.890

                                                                               

 
  ***** POST1 NODAL DEGREE OF FREEDOM LISTING *****                            
 
  LOAD STEP=     1  SUBSTEP=     1                                             
   TIME=    1.0000      LOAD CASE=   0                                         
 
    NODE      VOLT  
   11818  -793.52    
   11819  -797.42    
   11820  -855.69    
   11821  -857.97    
   11822  -857.89    
   11823  -858.30    
   11824  -857.93    
   11825  -847.68    
   11826  -857.60    
   11827  -856.50    
   11828  -857.50    
   11829  -806.74    
   11830  -855.05    
   11831  -856.56    
   11832  -809.39    
   11833  -707.29    
   11834  -857.73    
   11835  -844.83    
   11836  -834.80    
   11837  -833.27    
   11838  -493.92    
   11839  -493.01    
   11840  -479.06    
   11841  -479.72    
   11842  -793.59    
   11843  -829.41    
   11844  -832.97    
   11845  -720.57    
   11846  -820.62    
   11847  -810.30    
   11848  -845.28    
   11849  -833.96    
   11850  -805.22    
   11851  -787.11    
   11852  -822.67    
   11853  -813.99    
   11854  -681.20    
   11855  -853.61    
   11856  -847.31    
1

 ***** ANSYS - ENGINEERING ANALYSIS SYSTEM  RELEASE 15.0      *****
 ANSYS Academic Teaching Advanced                  
 00203145          VERSION=LINUX x64     15:15:26  APR 01, 2014 CP=     12.891

                                                                               

 
  ***** POST1 NODAL DEGREE OF FREEDOM LISTING *****                            
 
  LOAD STEP=     1  SUBSTEP=     1                                             
   TIME=    1.0000      LOAD CASE=   0                                         
 
    NODE      VOLT  
   11857  -816.51    
   11858  -833.19    
   11859  -673.48    
   11860  -433.66    
   11861  -439.50    
   11862  -1125.5    
   11863  -1125.5    
   11864  -1123.0    
   11865  -1126.0    
   11866  -857.75    
   11867  -403.56    
   11868  -993.26    
   11869  -986.60    
   11870  -978.80    
   11871  -857.97    
   11872  -405.33    
   11873  -805.45    
   11874  -1113.3    
   11875  -1119.9    
   11876  -1098.8    
   11877  -5.8364    
   11878  -7.2955    
   11879  -852.63    
   11880  -850.92    
   11881  -852.64    
   11882  -410.18    
   11883  -858.19    
   11884  -965.47    
   11885  -972.13    
   11886  -857.06    
   11887  -853.13    
   11888  -857.45    
   11889  -851.08    
   11890  -853.24    
   11891  -834.11    
   11892  -407.23    
   11893  -423.03    
   11894  -402.14    
   11895  -404.93    
1

 ***** ANSYS - ENGINEERING ANALYSIS SYSTEM  RELEASE 15.0      *****
 ANSYS Academic Teaching Advanced                  
 00203145          VERSION=LINUX x64     15:15:26  APR 01, 2014 CP=     12.891

                                                                               

 
  ***** POST1 NODAL DEGREE OF FREEDOM LISTING *****                            
 
  LOAD STEP=     1  SUBSTEP=     1                                             
   TIME=    1.0000      LOAD CASE=   0                                         
 
    NODE      VOLT  
   11896  -401.73    
   11897  -406.96    
   11898  -828.16    
   11899  -819.78    
   11900  -907.16    
   11901  -912.56    
   11902  -913.83    
   11903  -912.97    
   11904  -902.21    
   11905  -858.32    
   11906  -1066.6    
   11907  -858.11    
   11908  -858.17    
   11909  -402.98    
   11910  -402.65    
   11911  -403.66    
   11912  -857.79    
   11913  -858.35    
   11914  -454.68    
   11915  -1092.1    
   11916  -1085.5    
   11917  -5.8364    
   11918  -409.46    
   11919  -5.8364    
   11920  -1079.9    
   11921  -1073.3    
   11922  -1053.3    
   11923  -529.07    
   11924  -533.47    
   11925  -11.673    
   11926  -5.8364    
   11927  -7.2955    
   11928  -858.37    
   11929  -455.50    
   11930  -426.03    
   11931  -444.44    
   11932  -426.45    
   11933  -421.27    
   11934  -474.60    
1

 ***** ANSYS - ENGINEERING ANALYSIS SYSTEM  RELEASE 15.0      *****
 ANSYS Academic Teaching Advanced                  
 00203145          VERSION=LINUX x64     15:15:26  APR 01, 2014 CP=     12.893

                                                                               

 
  ***** POST1 NODAL DEGREE OF FREEDOM LISTING *****                            
 
  LOAD STEP=     1  SUBSTEP=     1                                             
   TIME=    1.0000      LOAD CASE=   0                                         
 
    NODE      VOLT  
   11935  -438.37    
   11936  -424.51    
   11937  -482.54    
   11938  -402.34    
   11939  -402.13    
   11940  -401.04    
   11941  -402.52    
   11942  -854.68    
   11943  -925.47    
   11944  -932.13    
   11945  -918.80    
   11946  -794.63    
   11947  -800.15    
   11948  -825.00    
   11949  -199.42    
   11950  -184.32    
   11951  -172.79    
   11952  -952.13    
   11953  -945.47    
   11954  -938.80    
   11955  -400.74    
   11956  -855.42    
   11957  -852.72    
   11958  -509.24    
   11959  -858.40    
   11960  -854.30    
   11961  -400.59    
   11962  -400.78    
   11963  -400.67    
   11964  -400.78    
   11965  -400.45    
   11966  -401.15    
   11967  -400.66    
   11968  -870.19    
   11969  -875.23    
   11970  -410.78    
   11971  -856.19    
   11972  -857.84    
   11973  -895.56    
1

 ***** ANSYS - ENGINEERING ANALYSIS SYSTEM  RELEASE 15.0      *****
 ANSYS Academic Teaching Advanced                  
 00203145          VERSION=LINUX x64     15:15:26  APR 01, 2014 CP=     12.894

                                                                               

 
  ***** POST1 NODAL DEGREE OF FREEDOM LISTING *****                            
 
  LOAD STEP=     1  SUBSTEP=     1                                             
   TIME=    1.0000      LOAD CASE=   0                                         
 
    NODE      VOLT  
   11974  -857.68    
   11975  -854.55    
   11976  -858.29    
   11977  -885.15    
   11978  -888.90    
   11979  -880.86    
   11980  -878.92    
   11981  -532.88    
   11982  -905.89    
   11983  -908.29    
   11984  -855.54    
   11985  -855.88    
   11986  -854.76    
   11987  -505.08    
   11988  -857.79    
   11989  -856.83    
   11990  -856.41    
   11991  -852.07    
   11992  -849.99    
   11993  -851.34    
   11994  -407.50    
   11995  -1123.0    
   11996  -1128.0    
   11997  -1128.0    
   11998  -1033.3    
   11999  -1128.0    
   12000  -853.47    
   12001  -835.62    
   12002  -830.96    
   12003  -810.91    
   12004  -404.65    
   12005  -418.21    
   12006  -56.564    
   12007  -1127.5    
   12008  -1125.5    
   12009  -1128.0    
   12010  -1039.9    
   12011  -431.59    
   12012  -430.76    
1

 ***** ANSYS - ENGINEERING ANALYSIS SYSTEM  RELEASE 15.0      *****
 ANSYS Academic Teaching Advanced                  
 00203145          VERSION=LINUX x64     15:15:26  APR 01, 2014 CP=     12.895

                                                                               

 
  ***** POST1 NODAL DEGREE OF FREEDOM LISTING *****                            
 
  LOAD STEP=     1  SUBSTEP=     1                                             
   TIME=    1.0000      LOAD CASE=   0                                         
 
    NODE      VOLT  
   12013  -423.01    
   12014  -420.28    
   12015  -400.57    
   12016  -400.62    
   12017  -857.88    
   12018  -462.02    
   12019  -281.58    
   12020  -303.11    
   12021  -958.80    
   12022  -534.27    
   12023  -400.56    
   12024  -401.91    
   12025  -856.33    
   12026  -856.88    
   12027  -854.65    
   12028  -476.15    
   12029  -613.50    
   12030  -759.95    
   12031  -735.15    
   12032  -401.41    
   12033  -400.18    
   12034  -401.10    
   12035  -617.43    
   12036  -650.95    
   12037  -852.64    
   12038  -857.73    
   12039  -858.43    
   12040  -856.43    
   12041  -781.55    
   12042  -870.51    
   12043  -805.66    
   12044  -914.96    
   12045  -425.84    
   12046  -326.34    
   12047  -613.62    
   12048  -242.97    
   12049  -192.52    
   12050  -209.15    
   12051  -226.42    
1

 ***** ANSYS - ENGINEERING ANALYSIS SYSTEM  RELEASE 15.0      *****
 ANSYS Academic Teaching Advanced                  
 00203145          VERSION=LINUX x64     15:15:26  APR 01, 2014 CP=     12.896

                                                                               

 
  ***** POST1 NODAL DEGREE OF FREEDOM LISTING *****                            
 
  LOAD STEP=     1  SUBSTEP=     1                                             
   TIME=    1.0000      LOAD CASE=   0                                         
 
    NODE      VOLT  
   12052  -858.57    
   12053  -857.51    
   12054  -858.54    
   12055  -856.57    
   12056  -573.43    
   12057  -858.40    
   12058  -691.93    
   12059  -814.05    
   12060  -828.77    
   12061  -838.42    
   12062  -807.79    
   12063  -828.30    
   12064  -808.24    
   12065  -603.14    
   12066  -180.99    
   12067  -906.31    
   12068  -877.18    
   12069  -781.52    
   12070  -1059.9    
   12071  -1046.6    
   12072  -664.65    
   12073  -106.49    
   12074  -125.82    
   12075  -145.15    
   12076  -635.26    
   12077  -853.13    
   12078  -320.06    
   12079  -833.67    
   12080  -857.07    
   12081  -855.58    
   12082  -826.73    
   12083  -856.02    
   12084  -858.43    
   12085  -856.58    
   12086  -857.13    
   12087  -265.03    
   12088  -161.66    
   12089  -157.69    
   12090  -999.93    
1

 ***** ANSYS - ENGINEERING ANALYSIS SYSTEM  RELEASE 15.0      *****
 ANSYS Academic Teaching Advanced                  
 00203145          VERSION=LINUX x64     15:15:26  APR 01, 2014 CP=     12.897

                                                                               

 
  ***** POST1 NODAL DEGREE OF FREEDOM LISTING *****                            
 
  LOAD STEP=     1  SUBSTEP=     1                                             
   TIME=    1.0000      LOAD CASE=   0                                         
 
    NODE      VOLT  
   12091  -1127.5    
   12092  -1106.6    
   12093  -1006.6    
   12094  -1013.3    
   12095  -828.98    
   12096  -13.132    
   12097  -91.129    

 MAXIMUM ABSOLUTE VALUES
 NODE         21
 VALUE   -1130.0    
