
 PRINT DOF  NODAL SOLUTION PER NODE
1

 ***** ANSYS - ENGINEERING ANALYSIS SYSTEM  RELEASE 15.0      *****
 ANSYS Academic Teaching Advanced                  
 00203145          VERSION=LINUX x64     15:15:29  APR 01, 2014 CP=     17.150

                                                                               

 
  ***** POST1 NODAL DEGREE OF FREEDOM LISTING *****                            
 
  LOAD STEP=     1  SUBSTEP=     1                                             
   TIME=    1.0000      LOAD CASE=   0                                         
 
    NODE      VOLT  
       1   0.0000    
       2   0.0000    
       3   0.0000    
       4  0.90051E-03
       5   0.0000    
       6   0.0000    
       7   0.0000    
       8   0.0000    
       9   0.0000    
      10   0.0000    
      11   0.0000    
      12   0.0000    
      13   0.0000    
      14  0.89422E-03
      15   0.0000    
      16   0.0000    
      17   0.0000    
      18   0.0000    
      19   0.0000    
      20   0.0000    
      21   0.0000    
      22   0.0000    
      23   0.0000    
      24   0.0000    
      25   0.0000    
      26   0.0000    
      27   0.0000    
      28   1.0000    
      29   1.0000    
      30   1.0000    
      31   1.0000    
      32   0.0000    
      33  0.90465E-03
      34  0.90198E-03
      35   0.0000    
      36   0.0000    
      37   0.0000    
      38   0.0000    
      39   0.0000    
1

 ***** ANSYS - ENGINEERING ANALYSIS SYSTEM  RELEASE 15.0      *****
 ANSYS Academic Teaching Advanced                  
 00203145          VERSION=LINUX x64     15:15:29  APR 01, 2014 CP=     17.150

                                                                               

 
  ***** POST1 NODAL DEGREE OF FREEDOM LISTING *****                            
 
  LOAD STEP=     1  SUBSTEP=     1                                             
   TIME=    1.0000      LOAD CASE=   0                                         
 
    NODE      VOLT  
      40   0.0000    
      41   0.0000    
      42   0.0000    
      43   0.0000    
      44   0.0000    
      45   0.0000    
      46   0.0000    
      47   0.0000    
      48   0.0000    
      49   0.0000    
      50   0.0000    
      51   0.0000    
      52   0.0000    
      53   0.0000    
      54   0.0000    
      55   0.0000    
      56   0.0000    
      57   0.0000    
      58   0.0000    
      59   0.0000    
      60  0.81784E-04
      61  0.14891E-03
      62  0.22103E-03
      63  0.29333E-03
      64  0.39925E-03
      65  0.52201E-03
      66  0.68418E-03
      67  0.91541E-03
      68  0.95096E-03
      69  0.96524E-03
      70  0.93801E-03
      71  0.87177E-03
      72  0.72960E-03
      73  0.45716E-03
      74   0.0000    
      75   0.0000    
      76   0.0000    
      77   0.0000    
      78   0.0000    
1

 ***** ANSYS - ENGINEERING ANALYSIS SYSTEM  RELEASE 15.0      *****
 ANSYS Academic Teaching Advanced                  
 00203145          VERSION=LINUX x64     15:15:29  APR 01, 2014 CP=     17.151

                                                                               

 
  ***** POST1 NODAL DEGREE OF FREEDOM LISTING *****                            
 
  LOAD STEP=     1  SUBSTEP=     1                                             
   TIME=    1.0000      LOAD CASE=   0                                         
 
    NODE      VOLT  
      79   0.0000    
      80   0.0000    
      81   0.0000    
      82   0.0000    
      83   0.0000    
      84   0.0000    
      85   0.0000    
      86   0.0000    
      87   0.0000    
      88   0.0000    
      89   0.0000    
      90   0.0000    
      91   0.0000    
      92   0.0000    
      93   0.0000    
      94   0.0000    
      95   0.0000    
      96   0.0000    
      97  0.29156E-04
      98  0.57285E-04
      99  0.92781E-04
     100  0.12110E-03
     101  0.14634E-03
     102  0.13478E-03
     103  0.10924E-03
     104  0.70307E-04
     105  0.36392E-04
     106  0.29175E-04
     107  0.57270E-04
     108  0.92054E-04
     109  0.11934E-03
     110  0.14639E-03
     111  0.13460E-03
     112  0.10903E-03
     113  0.70324E-04
     114  0.36489E-04
     115   0.0000    
     116   0.0000    
     117   0.0000    
1

 ***** ANSYS - ENGINEERING ANALYSIS SYSTEM  RELEASE 15.0      *****
 ANSYS Academic Teaching Advanced                  
 00203145          VERSION=LINUX x64     15:15:29  APR 01, 2014 CP=     17.152

                                                                               

 
  ***** POST1 NODAL DEGREE OF FREEDOM LISTING *****                            
 
  LOAD STEP=     1  SUBSTEP=     1                                             
   TIME=    1.0000      LOAD CASE=   0                                         
 
    NODE      VOLT  
     118   0.0000    
     119   0.0000    
     120   0.0000    
     121   0.0000    
     122   0.0000    
     123   0.0000    
     124   0.0000    
     125   0.0000    
     126   0.0000    
     127   0.0000    
     128   0.0000    
     129   0.0000    
     130   0.0000    
     131   0.0000    
     132   0.0000    
     133  0.91383E-03
     134  0.94908E-03
     135  0.96084E-03
     136  0.92973E-03
     137  0.86582E-03
     138  0.72976E-03
     139  0.46434E-03
     140   0.0000    
     141   0.0000    
     142   0.0000    
     143   0.0000    
     144   0.0000    
     145   0.0000    
     146   0.0000    
     147   0.0000    
     148   0.0000    
     149   0.0000    
     150   0.0000    
     151   0.0000    
     152   0.0000    
     153   0.0000    
     154   0.0000    
     155   0.0000    
     156   0.0000    
1

 ***** ANSYS - ENGINEERING ANALYSIS SYSTEM  RELEASE 15.0      *****
 ANSYS Academic Teaching Advanced                  
 00203145          VERSION=LINUX x64     15:15:29  APR 01, 2014 CP=     17.152

                                                                               

 
  ***** POST1 NODAL DEGREE OF FREEDOM LISTING *****                            
 
  LOAD STEP=     1  SUBSTEP=     1                                             
   TIME=    1.0000      LOAD CASE=   0                                         
 
    NODE      VOLT  
     157   0.0000    
     158  0.77296E-04
     159  0.14739E-03
     160  0.22051E-03
     161  0.29320E-03
     162  0.39808E-03
     163  0.51888E-03
     164  0.68613E-03
     165   0.0000    
     166   0.0000    
     167   0.0000    
     168   0.0000    
     169   0.0000    
     170   0.0000    
     171   0.0000    
     172   0.0000    
     173   0.0000    
     174   0.0000    
     175   0.0000    
     176   0.0000    
     177   0.0000    
     178   0.0000    
     179   0.0000    
     180   0.0000    
     181   0.0000    
     182   0.0000    
     183   0.0000    
     184   0.0000    
     185   0.0000    
     186   0.0000    
     187   0.0000    
     188   0.0000    
     189   0.0000    
     190   0.0000    
     191   0.0000    
     192   0.0000    
     193   0.0000    
     194   0.0000    
     195   0.0000    
1

 ***** ANSYS - ENGINEERING ANALYSIS SYSTEM  RELEASE 15.0      *****
 ANSYS Academic Teaching Advanced                  
 00203145          VERSION=LINUX x64     15:15:29  APR 01, 2014 CP=     17.153

                                                                               

 
  ***** POST1 NODAL DEGREE OF FREEDOM LISTING *****                            
 
  LOAD STEP=     1  SUBSTEP=     1                                             
   TIME=    1.0000      LOAD CASE=   0                                         
 
    NODE      VOLT  
     196   0.0000    
     197   0.0000    
     198   0.0000    
     199   0.0000    
     200   0.0000    
     201   0.0000    
     202   0.0000    
     203   0.0000    
     204   0.0000    
     205   0.0000    
     206   0.0000    
     207   0.0000    
     208   0.0000    
     209   0.0000    
     210   0.0000    
     211   0.0000    
     212   0.0000    
     213   0.0000    
     214   0.0000    
     215   0.0000    
     216   0.0000    
     217   0.0000    
     218   0.0000    
     219   0.0000    
     220   0.0000    
     221   0.0000    
     222   0.0000    
     223   0.0000    
     224   0.0000    
     225   0.0000    
     226   0.0000    
     227   0.0000    
     228   0.0000    
     229   0.0000    
     230   0.0000    
     231   0.0000    
     232   0.0000    
     233   0.0000    
     234  0.86019E-05
1

 ***** ANSYS - ENGINEERING ANALYSIS SYSTEM  RELEASE 15.0      *****
 ANSYS Academic Teaching Advanced                  
 00203145          VERSION=LINUX x64     15:15:29  APR 01, 2014 CP=     17.153

                                                                               

 
  ***** POST1 NODAL DEGREE OF FREEDOM LISTING *****                            
 
  LOAD STEP=     1  SUBSTEP=     1                                             
   TIME=    1.0000      LOAD CASE=   0                                         
 
    NODE      VOLT  
     235  0.16876E-04
     236  0.27506E-04
     237  0.36716E-04
     238  0.47365E-04
     239  0.55310E-04
     240  0.62686E-04
     241  0.66014E-04
     242  0.70616E-04
     243  0.73593E-04
     244  0.74206E-04
     245  0.73943E-04
     246  0.73109E-04
     247  0.72201E-04
     248  0.70796E-04
     249  0.69388E-04
     250  0.67603E-04
     251  0.65820E-04
     252  0.63997E-04
     253  0.62175E-04
     254  0.60352E-04
     255  0.58529E-04
     256  0.56164E-04
     257  0.53799E-04
     258  0.51976E-04
     259  0.50153E-04
     260  0.48329E-04
     261  0.46506E-04
     262  0.44683E-04
     263  0.42860E-04
     264  0.41037E-04
     265  0.39214E-04
     266  0.37391E-04
     267  0.35568E-04
     268  0.33745E-04
     269  0.31922E-04
     270  0.30099E-04
     271  0.28276E-04
     272  0.26453E-04
     273  0.24629E-04
1

 ***** ANSYS - ENGINEERING ANALYSIS SYSTEM  RELEASE 15.0      *****
 ANSYS Academic Teaching Advanced                  
 00203145          VERSION=LINUX x64     15:15:29  APR 01, 2014 CP=     17.154

                                                                               

 
  ***** POST1 NODAL DEGREE OF FREEDOM LISTING *****                            
 
  LOAD STEP=     1  SUBSTEP=     1                                             
   TIME=    1.0000      LOAD CASE=   0                                         
 
    NODE      VOLT  
     274  0.22806E-04
     275  0.20983E-04
     276  0.19160E-04
     277  0.17337E-04
     278  0.15514E-04
     279  0.13691E-04
     280  0.11868E-04
     281  0.10045E-04
     282  0.82218E-05
     283  0.63988E-05
     284  0.45757E-05
     285  0.27526E-05
     286  0.13763E-05
     287   0.0000    
     288   0.0000    
     289   0.0000    
     290   0.0000    
     291   0.0000    
     292   0.0000    
     293   0.0000    
     294   0.0000    
     295   0.0000    
     296   0.0000    
     297   0.0000    
     298   0.0000    
     299   0.0000    
     300   0.0000    
     301   0.0000    
     302   0.0000    
     303   0.0000    
     304   0.0000    
     305   0.0000    
     306   0.0000    
     307   0.0000    
     308   0.0000    
     309   0.0000    
     310  0.85879E-05
     311  0.16834E-04
     312  0.27481E-04
1

 ***** ANSYS - ENGINEERING ANALYSIS SYSTEM  RELEASE 15.0      *****
 ANSYS Academic Teaching Advanced                  
 00203145          VERSION=LINUX x64     15:15:29  APR 01, 2014 CP=     17.155

                                                                               

 
  ***** POST1 NODAL DEGREE OF FREEDOM LISTING *****                            
 
  LOAD STEP=     1  SUBSTEP=     1                                             
   TIME=    1.0000      LOAD CASE=   0                                         
 
    NODE      VOLT  
     313  0.36908E-04
     314  0.47718E-04
     315  0.55782E-04
     316  0.63446E-04
     317  0.67842E-04
     318  0.71806E-04
     319  0.73897E-04
     320  0.74215E-04
     321  0.73861E-04
     322  0.73088E-04
     323  0.72175E-04
     324  0.70816E-04
     325  0.69447E-04
     326  0.67743E-04
     327  0.66038E-04
     328  0.64220E-04
     329  0.62402E-04
     330  0.60579E-04
     331  0.58756E-04
     332  0.56277E-04
     333  0.53799E-04
     334  0.51976E-04
     335  0.50153E-04
     336  0.48329E-04
     337  0.46506E-04
     338  0.44683E-04
     339  0.42860E-04
     340  0.41037E-04
     341  0.39214E-04
     342  0.37391E-04
     343  0.35568E-04
     344  0.33745E-04
     345  0.31922E-04
     346  0.30099E-04
     347  0.28276E-04
     348  0.26453E-04
     349  0.24629E-04
     350  0.22806E-04
     351  0.20983E-04
1

 ***** ANSYS - ENGINEERING ANALYSIS SYSTEM  RELEASE 15.0      *****
 ANSYS Academic Teaching Advanced                  
 00203145          VERSION=LINUX x64     15:15:29  APR 01, 2014 CP=     17.155

                                                                               

 
  ***** POST1 NODAL DEGREE OF FREEDOM LISTING *****                            
 
  LOAD STEP=     1  SUBSTEP=     1                                             
   TIME=    1.0000      LOAD CASE=   0                                         
 
    NODE      VOLT  
     352  0.19160E-04
     353  0.17337E-04
     354  0.15514E-04
     355  0.13691E-04
     356  0.11868E-04
     357  0.10045E-04
     358  0.82218E-05
     359  0.63988E-05
     360  0.45757E-05
     361  0.27526E-05
     362  0.13763E-05
     363   0.0000    
     364   0.0000    
     365   0.0000    
     366   0.0000    
     367   0.0000    
     368   0.0000    
     369   0.0000    
     370   0.0000    
     371   0.0000    
     372   0.0000    
     373   0.0000    
     374   0.0000    
     375   0.0000    
     376   0.0000    
     377   0.0000    
     378   0.0000    
     379   0.0000    
     380   0.0000    
     381   0.0000    
     382   0.0000    
     383   0.0000    
     384   0.0000    
     385   0.0000    
     386   0.0000    
     387   1.0000    
     388   1.0000    
     389   1.0000    
     390   1.0000    
1

 ***** ANSYS - ENGINEERING ANALYSIS SYSTEM  RELEASE 15.0      *****
 ANSYS Academic Teaching Advanced                  
 00203145          VERSION=LINUX x64     15:15:29  APR 01, 2014 CP=     17.156

                                                                               

 
  ***** POST1 NODAL DEGREE OF FREEDOM LISTING *****                            
 
  LOAD STEP=     1  SUBSTEP=     1                                             
   TIME=    1.0000      LOAD CASE=   0                                         
 
    NODE      VOLT  
     391   1.0000    
     392   1.0000    
     393  0.96509    
     394  0.93018    
     395  0.87445    
     396  0.81872    
     397  0.77247    
     398  0.72623    
     399  0.67999    
     400  0.63374    
     401  0.58750    
     402  0.54125    
     403  0.49501    
     404  0.44877    
     405  0.40262    
     406  0.35648    
     407  0.31161    
     408  0.26675    
     409  0.22750    
     410  0.18826    
     411  0.15896    
     412  0.12967    
     413  0.10833    
     414  0.87030E-01
     415  0.71254E-01
     416  0.55662E-01
     417  0.43690E-01
     418  0.32272E-01
     419  0.23153E-01
     420  0.15450E-01
     421  0.99794E-02
     422  0.60640E-02
     423  0.36844E-02
     424  0.22114E-02
     425  0.12321E-02
     426  0.70364E-03
     427  0.40061E-03
     428  0.24733E-03
     429  0.15019E-03
1

 ***** ANSYS - ENGINEERING ANALYSIS SYSTEM  RELEASE 15.0      *****
 ANSYS Academic Teaching Advanced                  
 00203145          VERSION=LINUX x64     15:15:29  APR 01, 2014 CP=     17.157

                                                                               

 
  ***** POST1 NODAL DEGREE OF FREEDOM LISTING *****                            
 
  LOAD STEP=     1  SUBSTEP=     1                                             
   TIME=    1.0000      LOAD CASE=   0                                         
 
    NODE      VOLT  
     430  0.10710E-03
     431  0.86299E-04
     432  0.76881E-04
     433  0.73837E-04
     434  0.72062E-04
     435  0.70216E-04
     436  0.68384E-04
     437  0.66561E-04
     438  0.64737E-04
     439  0.62914E-04
     440  0.61091E-04
     441  0.59268E-04
     442  0.57445E-04
     443  0.55622E-04
     444  0.53799E-04
     445  0.51976E-04
     446  0.50153E-04
     447  0.48329E-04
     448  0.46506E-04
     449  0.44683E-04
     450  0.42860E-04
     451  0.41037E-04
     452  0.39214E-04
     453  0.37391E-04
     454  0.35568E-04
     455  0.33745E-04
     456  0.31922E-04
     457  0.30099E-04
     458  0.28276E-04
     459  0.26453E-04
     460  0.24629E-04
     461  0.22806E-04
     462  0.20983E-04
     463  0.19160E-04
     464  0.17337E-04
     465  0.15514E-04
     466  0.13691E-04
     467  0.11868E-04
     468  0.10045E-04
1

 ***** ANSYS - ENGINEERING ANALYSIS SYSTEM  RELEASE 15.0      *****
 ANSYS Academic Teaching Advanced                  
 00203145          VERSION=LINUX x64     15:15:29  APR 01, 2014 CP=     17.158

                                                                               

 
  ***** POST1 NODAL DEGREE OF FREEDOM LISTING *****                            
 
  LOAD STEP=     1  SUBSTEP=     1                                             
   TIME=    1.0000      LOAD CASE=   0                                         
 
    NODE      VOLT  
     469  0.82218E-05
     470  0.63988E-05
     471  0.45757E-05
     472  0.27526E-05
     473  0.13763E-05
     474  0.13763E-05
     475  0.27526E-05
     476  0.48837E-05
     477  0.70149E-05
     478  0.88379E-05
     479  0.10661E-04
     480  0.12484E-04
     481  0.14307E-04
     482  0.16130E-04
     483  0.17953E-04
     484  0.19776E-04
     485  0.21599E-04
     486  0.23423E-04
     487  0.25246E-04
     488  0.27069E-04
     489  0.28892E-04
     490  0.30715E-04
     491  0.32538E-04
     492  0.34361E-04
     493  0.36184E-04
     494  0.38007E-04
     495  0.39830E-04
     496  0.41653E-04
     497  0.43476E-04
     498  0.45299E-04
     499  0.47122E-04
     500  0.48946E-04
     501  0.50769E-04
     502  0.52592E-04
     503  0.54415E-04
     504  0.56238E-04
     505  0.58061E-04
     506  0.59884E-04
     507  0.61707E-04
1

 ***** ANSYS - ENGINEERING ANALYSIS SYSTEM  RELEASE 15.0      *****
 ANSYS Academic Teaching Advanced                  
 00203145          VERSION=LINUX x64     15:15:29  APR 01, 2014 CP=     17.158

                                                                               

 
  ***** POST1 NODAL DEGREE OF FREEDOM LISTING *****                            
 
  LOAD STEP=     1  SUBSTEP=     1                                             
   TIME=    1.0000      LOAD CASE=   0                                         
 
    NODE      VOLT  
     508  0.63529E-04
     509  0.65350E-04
     510  0.67128E-04
     511  0.68904E-04
     512  0.70374E-04
     513  0.71860E-04
     514  0.73188E-04
     515  0.74829E-04
     516  0.76633E-04
     517  0.80268E-04
     518  0.89931E-04
     519  0.10691E-03
     520  0.13647E-03
     521  0.19110E-03
     522  0.29192E-03
     523  0.47525E-03
     524  0.76007E-03
     525  0.12720E-02
     526  0.21240E-02
     527  0.35915E-02
     528  0.64985E-02
     529  0.11155E-01
     530  0.18446E-01
     531  0.27669E-01
     532  0.42141E-01
     533  0.57735E-01
     534  0.82353E-01
     535  0.10726    
     536  0.14876    
     537  0.19028    
     538  0.23652    
     539  0.28276    
     540  0.32901    
     541  0.37525    
     542  0.42150    
     543  0.46774    
     544  0.51398    
     545  0.56023    
     546  0.60647    
1

 ***** ANSYS - ENGINEERING ANALYSIS SYSTEM  RELEASE 15.0      *****
 ANSYS Academic Teaching Advanced                  
 00203145          VERSION=LINUX x64     15:15:29  APR 01, 2014 CP=     17.159

                                                                               

 
  ***** POST1 NODAL DEGREE OF FREEDOM LISTING *****                            
 
  LOAD STEP=     1  SUBSTEP=     1                                             
   TIME=    1.0000      LOAD CASE=   0                                         
 
    NODE      VOLT  
     547  0.65271    
     548  0.69896    
     549  0.74520    
     550  0.79145    
     551  0.83769    
     552  0.88393    
     553  0.93018    
     554  0.96509    
     555  0.37814E-02
     556  0.75502E-02
     557  0.12736E-01
     558  0.17881E-01
     559  0.24989E-01
     560  0.31992E-01
     561  0.41653E-01
     562  0.51207E-01
     563  0.64542E-01
     564  0.77816E-01
     565  0.96246E-01
     566  0.11466    
     567  0.14025    
     568  0.16583    
     569  0.20165    
     570  0.23746    
     571  0.28325    
     572  0.32903    
     573  0.37528    
     574  0.42152    
     575  0.45620    
     576  0.49087    
     577  0.52555    
     578  0.56023    
     579  0.60647    
     580  0.65271    
     581  0.69896    
     582  0.74520    
     583  0.79145    
     584  0.83769    
     585  0.88393    
1

 ***** ANSYS - ENGINEERING ANALYSIS SYSTEM  RELEASE 15.0      *****
 ANSYS Academic Teaching Advanced                  
 00203145          VERSION=LINUX x64     15:15:29  APR 01, 2014 CP=     17.160

                                                                               

 
  ***** POST1 NODAL DEGREE OF FREEDOM LISTING *****                            
 
  LOAD STEP=     1  SUBSTEP=     1                                             
   TIME=    1.0000      LOAD CASE=   0                                         
 
    NODE      VOLT  
     586  0.93018    
     587  0.96509    
     588  0.37822E-02
     589  0.75518E-02
     590  0.12738E-01
     591  0.17878E-01
     592  0.24984E-01
     593  0.31974E-01
     594  0.41648E-01
     595  0.51224E-01
     596  0.64543E-01
     597  0.77819E-01
     598  0.96263E-01
     599  0.11468    
     600  0.14025    
     601  0.16583    
     602  0.20126    
     603  0.23669    
     604  0.28010    
     605  0.32351    
     606  0.36964    
     607  0.41577    
     608  0.46202    
     609  0.50826    
     610  0.54437    
     611  0.58049    
     612  0.61660    
     613  0.65271    
     614  0.69896    
     615  0.74520    
     616  0.79145    
     617  0.83769    
     618  0.88393    
     619  0.93018    
     620  0.96509    
     621   0.0000    
     622   0.0000    
     623   0.0000    
     624   0.0000    
1

 ***** ANSYS - ENGINEERING ANALYSIS SYSTEM  RELEASE 15.0      *****
 ANSYS Academic Teaching Advanced                  
 00203145          VERSION=LINUX x64     15:15:29  APR 01, 2014 CP=     17.161

                                                                               

 
  ***** POST1 NODAL DEGREE OF FREEDOM LISTING *****                            
 
  LOAD STEP=     1  SUBSTEP=     1                                             
   TIME=    1.0000      LOAD CASE=   0                                         
 
    NODE      VOLT  
     625   0.0000    
     626   0.0000    
     627   0.0000    
     628   0.0000    
     629   0.0000    
     630   0.0000    
     631   0.0000    
     632   0.0000    
     633   0.0000    
     634   0.0000    
     635   0.0000    
     636   0.0000    
     637   0.0000    
     638   0.0000    
     639   0.0000    
     640  0.90026E-03
     641  0.89745E-03
     642  0.89937E-03
     643  0.90311E-03
     644  0.89911E-03
     645  0.89339E-03
     646  0.89863E-03
     647  0.90413E-03
     648  0.90270E-03
     649  0.90139E-03
     650  0.90352E-03
     651  0.82517E-04
     652  0.14959E-03
     653  0.22065E-03
     654  0.29267E-03
     655  0.39554E-03
     656  0.51454E-03
     657  0.68257E-03
     658   0.0000    
     659   0.0000    
     660   0.0000    
     661   0.0000    
     662   0.0000    
     663   0.0000    
1

 ***** ANSYS - ENGINEERING ANALYSIS SYSTEM  RELEASE 15.0      *****
 ANSYS Academic Teaching Advanced                  
 00203145          VERSION=LINUX x64     15:15:29  APR 01, 2014 CP=     17.161

                                                                               

 
  ***** POST1 NODAL DEGREE OF FREEDOM LISTING *****                            
 
  LOAD STEP=     1  SUBSTEP=     1                                             
   TIME=    1.0000      LOAD CASE=   0                                         
 
    NODE      VOLT  
     664   0.0000    
     665   0.0000    
     666   0.0000    
     667   0.0000    
     668   0.0000    
     669   0.0000    
     670   0.0000    
     671   0.0000    
     672   0.0000    
     673   0.0000    
     674   0.0000    
     675   0.0000    
     676   0.0000    
     677   0.0000    
     678   0.0000    
     679   0.0000    
     680   0.0000    
     681   0.0000    
     682   0.0000    
     683   0.0000    
     684   0.0000    
     685   0.0000    
     686   0.0000    
     687   0.0000    
     688   0.0000    
     689   0.0000    
     690   0.0000    
     691   0.0000    
     692   0.0000    
     693   0.0000    
     694   0.0000    
     695   0.0000    
     696  0.90090E-03
     697  0.89902E-03
     698  0.89957E-03
     699  0.89922E-03
     700  0.89825E-03
     701  0.89648E-03
     702  0.89824E-03
1

 ***** ANSYS - ENGINEERING ANALYSIS SYSTEM  RELEASE 15.0      *****
 ANSYS Academic Teaching Advanced                  
 00203145          VERSION=LINUX x64     15:15:29  APR 01, 2014 CP=     17.162

                                                                               

 
  ***** POST1 NODAL DEGREE OF FREEDOM LISTING *****                            
 
  LOAD STEP=     1  SUBSTEP=     1                                             
   TIME=    1.0000      LOAD CASE=   0                                         
 
    NODE      VOLT  
     703  0.89905E-03
     704  0.90217E-03
     705  0.90328E-03
     706  0.90211E-03
     707  0.82035E-04
     708  0.14928E-03
     709  0.22086E-03
     710  0.29273E-03
     711  0.39626E-03
     712  0.51413E-03
     713  0.68380E-03
     714   0.0000    
     715   0.0000    
     716   0.0000    
     717   0.0000    
     718   0.0000    
     719   0.0000    
     720   0.0000    
     721   0.0000    
     722   0.0000    
     723   0.0000    
     724   0.0000    
     725   0.0000    
     726   0.0000    
     727   0.0000    
     728   0.0000    
     729   0.0000    
     730   0.0000    
     731   0.0000    
     732   0.0000    
     733   0.0000    
     734   0.0000    
     735   0.0000    
     736   0.0000    
     737   0.0000    
     738   0.0000    
     739   0.0000    
     740   0.0000    
     741   0.0000    
1

 ***** ANSYS - ENGINEERING ANALYSIS SYSTEM  RELEASE 15.0      *****
 ANSYS Academic Teaching Advanced                  
 00203145          VERSION=LINUX x64     15:15:29  APR 01, 2014 CP=     17.163

                                                                               

 
  ***** POST1 NODAL DEGREE OF FREEDOM LISTING *****                            
 
  LOAD STEP=     1  SUBSTEP=     1                                             
   TIME=    1.0000      LOAD CASE=   0                                         
 
    NODE      VOLT  
     742   0.0000    
     743   0.0000    
     744   0.0000    
     745   0.0000    
     746   0.0000    
     747   0.0000    
     748   0.0000    
     749   0.0000    
     750   0.0000    
     751   0.0000    
     752   0.0000    
     753   0.0000    
     754   0.0000    
     755   0.0000    
     756   0.0000    
     757   0.0000    
     758   0.0000    
     759   0.0000    
     760   0.0000    
     761   0.0000    
     762   0.0000    
     763   0.0000    
     764   0.0000    
     765   0.0000    
     766   0.0000    
     767   0.0000    
     768   0.0000    
     769   0.0000    
     770   0.0000    
     771   0.0000    
     772   0.0000    
     773   0.0000    
     774   0.0000    
     775   0.0000    
     776   0.0000    
     777   0.0000    
     778   0.0000    
     779   0.0000    
     780   0.0000    
1

 ***** ANSYS - ENGINEERING ANALYSIS SYSTEM  RELEASE 15.0      *****
 ANSYS Academic Teaching Advanced                  
 00203145          VERSION=LINUX x64     15:15:29  APR 01, 2014 CP=     17.163

                                                                               

 
  ***** POST1 NODAL DEGREE OF FREEDOM LISTING *****                            
 
  LOAD STEP=     1  SUBSTEP=     1                                             
   TIME=    1.0000      LOAD CASE=   0                                         
 
    NODE      VOLT  
     781   0.0000    
     782   0.0000    
     783   0.0000    
     784   0.0000    
     785   0.0000    
     786   0.0000    
     787   0.0000    
     788   0.0000    
     789   0.0000    
     790   0.0000    
     791   0.0000    
     792   0.0000    
     793   0.0000    
     794   0.0000    
     795   0.0000    
     796   0.0000    
     797   0.0000    
     798   0.0000    
     799   0.0000    
     800   0.0000    
     801   0.0000    
     802   0.0000    
     803   0.0000    
     804   0.0000    
     805   0.0000    
     806   0.0000    
     807   0.0000    
     808   0.0000    
     809   0.0000    
     810   0.0000    
     811   0.0000    
     812   0.0000    
     813   0.0000    
     814   0.0000    
     815   0.0000    
     816   0.0000    
     817   0.0000    
     818   0.0000    
     819   0.0000    
1

 ***** ANSYS - ENGINEERING ANALYSIS SYSTEM  RELEASE 15.0      *****
 ANSYS Academic Teaching Advanced                  
 00203145          VERSION=LINUX x64     15:15:29  APR 01, 2014 CP=     17.164

                                                                               

 
  ***** POST1 NODAL DEGREE OF FREEDOM LISTING *****                            
 
  LOAD STEP=     1  SUBSTEP=     1                                             
   TIME=    1.0000      LOAD CASE=   0                                         
 
    NODE      VOLT  
     820   0.0000    
     821   0.0000    
     822   0.0000    
     823   0.0000    
     824   0.0000    
     825   0.0000    
     826   0.0000    
     827   0.0000    
     828   0.0000    
     829   0.0000    
     830   0.0000    
     831   0.0000    
     832   0.0000    
     833   0.0000    
     834   0.0000    
     835  0.91269E-03
     836  0.94964E-03
     837  0.96190E-03
     838  0.93825E-03
     839  0.87558E-03
     840  0.72256E-03
     841  0.44515E-03
     842   0.0000    
     843   0.0000    
     844   0.0000    
     845   0.0000    
     846   0.0000    
     847   0.0000    
     848   0.0000    
     849   0.0000    
     850   0.0000    
     851   0.0000    
     852   0.0000    
     853   0.0000    
     854   0.0000    
     855   0.0000    
     856   0.0000    
     857   0.0000    
     858   0.0000    
1

 ***** ANSYS - ENGINEERING ANALYSIS SYSTEM  RELEASE 15.0      *****
 ANSYS Academic Teaching Advanced                  
 00203145          VERSION=LINUX x64     15:15:29  APR 01, 2014 CP=     17.165

                                                                               

 
  ***** POST1 NODAL DEGREE OF FREEDOM LISTING *****                            
 
  LOAD STEP=     1  SUBSTEP=     1                                             
   TIME=    1.0000      LOAD CASE=   0                                         
 
    NODE      VOLT  
     859   0.0000    
     860   0.0000    
     861   0.0000    
     862   0.0000    
     863   0.0000    
     864   0.0000    
     865   0.0000    
     866   0.0000    
     867   0.0000    
     868   0.0000    
     869   0.0000    
     870   0.0000    
     871   0.0000    
     872   0.0000    
     873   0.0000    
     874   0.0000    
     875   0.0000    
     876   0.0000    
     877   0.0000    
     878   0.0000    
     879   0.0000    
     880  0.91494E-03
     881  0.95168E-03
     882  0.96310E-03
     883  0.93989E-03
     884  0.87526E-03
     885  0.72378E-03
     886  0.44584E-03
     887  0.96275E-03
     888  0.95469E-03
     889  0.96339E-03
     890  0.95849E-03
     891  0.49147E-03
     892  0.94917E-03
     893  0.93291E-03
     894  0.77495E-03
     895  0.68260E-03
     896  0.36176E-03
     897  0.67688E-03
1

 ***** ANSYS - ENGINEERING ANALYSIS SYSTEM  RELEASE 15.0      *****
 ANSYS Academic Teaching Advanced                  
 00203145          VERSION=LINUX x64     15:15:29  APR 01, 2014 CP=     17.165

                                                                               

 
  ***** POST1 NODAL DEGREE OF FREEDOM LISTING *****                            
 
  LOAD STEP=     1  SUBSTEP=     1                                             
   TIME=    1.0000      LOAD CASE=   0                                         
 
    NODE      VOLT  
     898  0.37745E-03
     899  0.92918E-03
     900  0.93478E-03
     901  0.90449E-03
     902  0.90251E-03
     903  0.95326E-03
     904  0.89975E-03
     905  0.93778E-03
     906  0.90432E-03
     907  0.96441E-03
     908  0.96024E-03
     909  0.96258E-03
     910  0.95217E-03
     911  0.95022E-03
     912  0.95146E-03
     913  0.96082E-03
     914  0.96131E-03
     915  0.96221E-03
     916  0.96186E-03
     917  0.96001E-03
     918  0.95937E-03
     919  0.96275E-03
     920  0.96193E-03
     921  0.91224E-03
     922  0.91453E-03
     923  0.92805E-03
     924  0.92630E-03
     925  0.91735E-03
     926  0.92224E-03
     927  0.89018E-03
     928  0.89727E-03
     929  0.90651E-03
     930  0.90885E-03
     931  0.88904E-03
     932  0.93115E-03
     933  0.94508E-03
     934  0.91796E-03
     935  0.87477E-03
     936  0.82061E-03
1

 ***** ANSYS - ENGINEERING ANALYSIS SYSTEM  RELEASE 15.0      *****
 ANSYS Academic Teaching Advanced                  
 00203145          VERSION=LINUX x64     15:15:29  APR 01, 2014 CP=     17.166

                                                                               

 
  ***** POST1 NODAL DEGREE OF FREEDOM LISTING *****                            
 
  LOAD STEP=     1  SUBSTEP=     1                                             
   TIME=    1.0000      LOAD CASE=   0                                         
 
    NODE      VOLT  
     937  0.93701E-03
     938  0.94211E-03
     939  0.94318E-03
     940  0.79466E-03
     941  0.82964E-03
     942  0.82967E-03
     943  0.82323E-03
     944  0.80831E-03
     945  0.79978E-03
     946  0.75803E-03
     947  0.91473E-03
     948  0.95887E-03
     949  0.95525E-03
     950  0.90878E-03
     951  0.81782E-03
     952  0.90663E-03
     953  0.90950E-03
     954  0.90583E-03
     955  0.90646E-03
     956  0.90955E-03
     957  0.91225E-03
     958  0.90694E-03
     959  0.90855E-03
     960  0.51271E-03
     961  0.50443E-03
     962  0.54964E-03
     963  0.59686E-03
     964  0.59604E-03
     965  0.54365E-03
     966  0.59476E-03
     967  0.57750E-03
     968  0.52909E-03
     969  0.54090E-03
     970  0.55520E-03
     971  0.52830E-03
     972  0.53724E-03
     973  0.50719E-03
     974  0.46895E-03
     975  0.46996E-03
1

 ***** ANSYS - ENGINEERING ANALYSIS SYSTEM  RELEASE 15.0      *****
 ANSYS Academic Teaching Advanced                  
 00203145          VERSION=LINUX x64     15:15:29  APR 01, 2014 CP=     17.167

                                                                               

 
  ***** POST1 NODAL DEGREE OF FREEDOM LISTING *****                            
 
  LOAD STEP=     1  SUBSTEP=     1                                             
   TIME=    1.0000      LOAD CASE=   0                                         
 
    NODE      VOLT  
     976  0.95645E-03
     977  0.96319E-03
     978  0.74428E-03
     979  0.88182E-03
     980  0.75677E-03
     981  0.96686E-03
     982  0.73326E-03
     983  0.77770E-03
     984  0.79707E-03
     985  0.81885E-03
     986  0.82854E-03
     987  0.82272E-03
     988  0.82310E-03
     989  0.93883E-03
     990  0.94972E-03
     991  0.93557E-03
     992  0.94096E-03
     993  0.87807E-03
     994  0.96259E-03
     995  0.94293E-03
     996  0.95545E-03
     997  0.94271E-03
     998  0.95817E-03
     999  0.96557E-03
    1000  0.95404E-03
    1001  0.92461E-03
    1002  0.92168E-03
    1003  0.60910E-03
    1004  0.31408E-03
    1005  0.36171E-03
    1006  0.65383E-03
    1007  0.88219E-04
    1008  0.42897E-04
    1009  0.34036E-04
    1010  0.38630E-03
    1011  0.21015E-03
    1012  0.15154E-03
    1013  0.48535E-03
    1014  0.24563E-03
1

 ***** ANSYS - ENGINEERING ANALYSIS SYSTEM  RELEASE 15.0      *****
 ANSYS Academic Teaching Advanced                  
 00203145          VERSION=LINUX x64     15:15:29  APR 01, 2014 CP=     17.168

                                                                               

 
  ***** POST1 NODAL DEGREE OF FREEDOM LISTING *****                            
 
  LOAD STEP=     1  SUBSTEP=     1                                             
   TIME=    1.0000      LOAD CASE=   0                                         
 
    NODE      VOLT  
    1015  0.14622E-03
    1016  0.15225E-03
    1017  0.14848E-03
    1018  0.14932E-03
    1019  0.66801E-03
    1020  0.32929E-03
    1021  0.20547E-03
    1022  0.49613E-03
    1023  0.28897E-03
    1024  0.95907E-04
    1025  0.18253E-03
    1026  0.62773E-04
    1027  0.98965E-04
    1028  0.11748E-03
    1029  0.78543E-04
    1030  0.67932E-03
    1031  0.43130E-04
    1032  0.74346E-04
    1033  0.62709E-04
    1034  0.64354E-04
    1035  0.18662E-03
    1036  0.26167E-03
    1037  0.20843E-03
    1038  0.14233E-03
    1039  0.49775E-03
    1040  0.60416E-03
    1041  0.38584E-04
    1042  0.35983E-04
    1043  0.47420E-04
    1044  0.53614E-04
    1045  0.94981E-04
    1046  0.72603E-04
    1047  0.37678E-03
    1048  0.14185E-03
    1049  0.46564E-03
    1050  0.23295E-03
    1051  0.17850E-03
    1052  0.36579E-03
    1053  0.40963E-03
1

 ***** ANSYS - ENGINEERING ANALYSIS SYSTEM  RELEASE 15.0      *****
 ANSYS Academic Teaching Advanced                  
 00203145          VERSION=LINUX x64     15:15:29  APR 01, 2014 CP=     17.168

                                                                               

 
  ***** POST1 NODAL DEGREE OF FREEDOM LISTING *****                            
 
  LOAD STEP=     1  SUBSTEP=     1                                             
   TIME=    1.0000      LOAD CASE=   0                                         
 
    NODE      VOLT  
    1054  0.36970E-03
    1055  0.53484E-03
    1056  0.74267E-03
    1057  0.88381E-04
    1058  0.82079E-04
    1059  0.28423E-03
    1060  0.54879E-03
    1061  0.66634E-03
    1062  0.77823E-03
    1063  0.59197E-03
    1064  0.77813E-03
    1065  0.35043E-03
    1066  0.37518E-03
    1067  0.37790E-03
    1068  0.37559E-03
    1069  0.36665E-03
    1070  0.29559E-03
    1071  0.28630E-03
    1072  0.28711E-03
    1073  0.30115E-03
    1074  0.28515E-03
    1075  0.37273E-03
    1076  0.45597E-03
    1077  0.45222E-03
    1078  0.32244E-03
    1079  0.35285E-03
    1080  0.45588E-03
    1081  0.23347E-03
    1082  0.22995E-03
    1083  0.23395E-03
    1084  0.23131E-03
    1085  0.21880E-03
    1086  0.21896E-03
    1087  0.23219E-03
    1088  0.23428E-03
    1089  0.23357E-03
    1090  0.23006E-03
    1091  0.21635E-03
    1092  0.20734E-03
1

 ***** ANSYS - ENGINEERING ANALYSIS SYSTEM  RELEASE 15.0      *****
 ANSYS Academic Teaching Advanced                  
 00203145          VERSION=LINUX x64     15:15:29  APR 01, 2014 CP=     17.169

                                                                               

 
  ***** POST1 NODAL DEGREE OF FREEDOM LISTING *****                            
 
  LOAD STEP=     1  SUBSTEP=     1                                             
   TIME=    1.0000      LOAD CASE=   0                                         
 
    NODE      VOLT  
    1093  0.55992E-03
    1094  0.57147E-03
    1095  0.53937E-03
    1096  0.54227E-03
    1097  0.55218E-03
    1098  0.55217E-03
    1099  0.26296E-03
    1100  0.54388E-03
    1101  0.17027E-03
    1102  0.17595E-03
    1103  0.16941E-03
    1104  0.16713E-03
    1105  0.16928E-03
    1106  0.16780E-03
    1107  0.15549E-03
    1108  0.65047E-03
    1109  0.68176E-03
    1110  0.66423E-03
    1111  0.66159E-03
    1112  0.46790E-03
    1113  0.25281E-03
    1114  0.73791E-03
    1115  0.56108E-03
    1116  0.14821E-03
    1117  0.21871E-03
    1118  0.36869E-03
    1119  0.48416E-03
    1120  0.86574E-04
    1121  0.87770E-04
    1122  0.99241E-04
    1123  0.99286E-04
    1124  0.92643E-04
    1125  0.93507E-04
    1126  0.93948E-04
    1127  0.96328E-04
    1128  0.92041E-04
    1129  0.92389E-04
    1130  0.95097E-04
    1131  0.90753E-04
1

 ***** ANSYS - ENGINEERING ANALYSIS SYSTEM  RELEASE 15.0      *****
 ANSYS Academic Teaching Advanced                  
 00203145          VERSION=LINUX x64     15:15:29  APR 01, 2014 CP=     17.170

                                                                               

 
  ***** POST1 NODAL DEGREE OF FREEDOM LISTING *****                            
 
  LOAD STEP=     1  SUBSTEP=     1                                             
   TIME=    1.0000      LOAD CASE=   0                                         
 
    NODE      VOLT  
    1132  0.91321E-04
    1133  0.93355E-04
    1134  0.83467E-04
    1135  0.79938E-04
    1136  0.79129E-03
    1137  0.79268E-03
    1138  0.77473E-03
    1139  0.77391E-03
    1140  0.77065E-03
    1141  0.77009E-03
    1142  0.76893E-03
    1143  0.76827E-03
    1144  0.22550E-03
    1145  0.15448E-03
    1146  0.43238E-03
    1147  0.32480E-03
    1148  0.35168E-03
    1149  0.15722E-03
    1150  0.65465E-03
    1151  0.65550E-03
    1152  0.66279E-03
    1153  0.69388E-03
    1154  0.14483E-03
    1155  0.16248E-03
    1156  0.16940E-03
    1157  0.16616E-03
    1158  0.16517E-03
    1159  0.17042E-03
    1160  0.17777E-03
    1161  0.44422E-03
    1162  0.60375E-03
    1163  0.45910E-03
    1164  0.43656E-03
    1165  0.46492E-03
    1166  0.26920E-03
    1167  0.29823E-03
    1168  0.29916E-03
    1169  0.27202E-03
    1170  0.29788E-03
1

 ***** ANSYS - ENGINEERING ANALYSIS SYSTEM  RELEASE 15.0      *****
 ANSYS Academic Teaching Advanced                  
 00203145          VERSION=LINUX x64     15:15:29  APR 01, 2014 CP=     17.171

                                                                               

 
  ***** POST1 NODAL DEGREE OF FREEDOM LISTING *****                            
 
  LOAD STEP=     1  SUBSTEP=     1                                             
   TIME=    1.0000      LOAD CASE=   0                                         
 
    NODE      VOLT  
    1171  0.28989E-03
    1172  0.66951E-03
    1173  0.87425E-04
    1174  0.10681E-03
    1175  0.11527E-03
    1176  0.13283E-03
    1177  0.12807E-03
    1178  0.69626E-04
    1179  0.34669E-04
    1180  0.30732E-03
    1181  0.63977E-03
    1182  0.94568E-04
    1183  0.10916E-03
    1184  0.63110E-03
    1185  0.38397E-03
    1186  0.33451E-04
    1187  0.83977E-04
    1188  0.57071E-04
    1189  0.54888E-04
    1190  0.19657E-04
    1191  0.19910E-04
    1192  0.43089E-04
    1193  0.14780E-04
    1194  0.43473E-04
    1195  0.14870E-04
    1196  0.43615E-03
    1197  0.28738E-03
    1198  0.14080E-03
    1199  0.12363E-03
    1200  0.31021E-03
    1201  0.89800E-04
    1202  0.10869E-03
    1203  0.83437E-04
    1204  0.84548E-04
    1205  0.10299E-03
    1206  0.97800E-04
    1207  0.10351E-03
    1208  0.10235E-03
    1209  0.11157E-03
1

 ***** ANSYS - ENGINEERING ANALYSIS SYSTEM  RELEASE 15.0      *****
 ANSYS Academic Teaching Advanced                  
 00203145          VERSION=LINUX x64     15:15:29  APR 01, 2014 CP=     17.171

                                                                               

 
  ***** POST1 NODAL DEGREE OF FREEDOM LISTING *****                            
 
  LOAD STEP=     1  SUBSTEP=     1                                             
   TIME=    1.0000      LOAD CASE=   0                                         
 
    NODE      VOLT  
    1210  0.11990E-03
    1211  0.14118E-03
    1212  0.28289E-03
    1213  0.49253E-03
    1214  0.64489E-03
    1215  0.61844E-04
    1216  0.74070E-04
    1217  0.17447E-03
    1218  0.13622E-03
    1219  0.13156E-03
    1220  0.98556E-04
    1221  0.94988E-04
    1222  0.12863E-03
    1223  0.11827E-03
    1224  0.10172E-03
    1225  0.10008E-03
    1226  0.17793E-03
    1227  0.20405E-03
    1228  0.98196E-04
    1229  0.94472E-04
    1230  0.10094E-03
    1231  0.15484E-03
    1232  0.16624E-03
    1233  0.77495E-04
    1234  0.70533E-04
    1235  0.83795E-04
    1236  0.86312E-04
    1237  0.69689E-04
    1238  0.96129E-04
    1239  0.75784E-04
    1240  0.10334E-03
    1241  0.11996E-03
    1242  0.94259E-04
    1243  0.71190E-04
    1244  0.91275E-04
    1245  0.57072E-04
    1246  0.72626E-04
    1247  0.10982E-03
    1248  0.59205E-04
1

 ***** ANSYS - ENGINEERING ANALYSIS SYSTEM  RELEASE 15.0      *****
 ANSYS Academic Teaching Advanced                  
 00203145          VERSION=LINUX x64     15:15:29  APR 01, 2014 CP=     17.172

                                                                               

 
  ***** POST1 NODAL DEGREE OF FREEDOM LISTING *****                            
 
  LOAD STEP=     1  SUBSTEP=     1                                             
   TIME=    1.0000      LOAD CASE=   0                                         
 
    NODE      VOLT  
    1249  0.59677E-04
    1250  0.59420E-04
    1251  0.57459E-04
    1252  0.52835E-04
    1253  0.52525E-04
    1254  0.56297E-04
    1255  0.58582E-04
    1256  0.59929E-04
    1257  0.65727E-04
    1258  0.79441E-04
    1259  0.89088E-04
    1260  0.45717E-04
    1261  0.38129E-04
    1262  0.38379E-04
    1263  0.36907E-04
    1264  0.38127E-04
    1265  0.43373E-04
    1266  0.52458E-04
    1267  0.93597E-04
    1268  0.28888E-04
    1269  0.28239E-04
    1270  0.27384E-04
    1271  0.18677E-04
    1272  0.17910E-04
    1273  0.20514E-04
    1274  0.19710E-04
    1275  0.19355E-04
    1276  0.18883E-04
    1277  0.18797E-04
    1278  0.18974E-04
    1279  0.19896E-04
    1280  0.21210E-04
    1281  0.22971E-04
    1282  0.25737E-04
    1283  0.27236E-04
    1284  0.31978E-04
    1285  0.64297E-04
    1286  0.79350E-04
    1287  0.57888E-03
1

 ***** ANSYS - ENGINEERING ANALYSIS SYSTEM  RELEASE 15.0      *****
 ANSYS Academic Teaching Advanced                  
 00203145          VERSION=LINUX x64     15:15:29  APR 01, 2014 CP=     17.173

                                                                               

 
  ***** POST1 NODAL DEGREE OF FREEDOM LISTING *****                            
 
  LOAD STEP=     1  SUBSTEP=     1                                             
   TIME=    1.0000      LOAD CASE=   0                                         
 
    NODE      VOLT  
    1288  0.44310E-03
    1289  0.14465E-03
    1290  0.20735E-03
    1291  0.39060E-04
    1292  0.36256E-04
    1293  0.37893E-04
    1294  0.35423E-04
    1295  0.37520E-04
    1296  0.31637E-04
    1297  0.31859E-04
    1298  0.31253E-04
    1299  0.65363E-04
    1300  0.54030E-04
    1301  0.21426E-03
    1302  0.14661E-03
    1303  0.32719E-03
    1304  0.10995E-03
    1305  0.59579E-04
    1306  0.68312E-04
    1307  0.72323E-04
    1308  0.14468E-03
    1309  0.58123E-04
    1310  0.48051E-04
    1311  0.40317E-04
    1312  0.37047E-04
    1313  0.37498E-04
    1314  0.39621E-04
    1315  0.36381E-04
    1316  0.55544E-04
    1317  0.11371E-03
    1318  0.80147E-04
    1319  0.73976E-04
    1320  0.66669E-04
    1321  0.75982E-04
    1322  0.79468E-04
    1323  0.11791E-03
    1324  0.95870E-04
    1325  0.21973E-03
    1326  0.10827E-03
1

 ***** ANSYS - ENGINEERING ANALYSIS SYSTEM  RELEASE 15.0      *****
 ANSYS Academic Teaching Advanced                  
 00203145          VERSION=LINUX x64     15:15:29  APR 01, 2014 CP=     17.174

                                                                               

 
  ***** POST1 NODAL DEGREE OF FREEDOM LISTING *****                            
 
  LOAD STEP=     1  SUBSTEP=     1                                             
   TIME=    1.0000      LOAD CASE=   0                                         
 
    NODE      VOLT  
    1327  0.12121E-03
    1328  0.11983E-03
    1329  0.14103E-03
    1330  0.43808E-03
    1331  0.10092E-03
    1332  0.10091E-03
    1333  0.29375E-04
    1334  0.38875E-04
    1335   0.0000    
    1336   0.0000    
    1337   0.0000    
    1338   0.0000    
    1339   0.0000    
    1340   0.0000    
    1341   0.0000    
    1342   0.0000    
    1343   0.0000    
    1344   0.0000    
    1345   0.0000    
    1346   0.0000    
    1347   0.0000    
    1348   0.0000    
    1349   0.0000    
    1350   0.0000    
    1351   0.0000    
    1352   0.0000    
    1353   0.0000    
    1354   0.0000    
    1355   0.0000    
    1356   0.0000    
    1357   0.0000    
    1358   0.0000    
    1359   0.0000    
    1360   0.0000    
    1361   0.0000    
    1362   0.0000    
    1363   0.0000    
    1364   0.0000    
    1365   0.0000    
1

 ***** ANSYS - ENGINEERING ANALYSIS SYSTEM  RELEASE 15.0      *****
 ANSYS Academic Teaching Advanced                  
 00203145          VERSION=LINUX x64     15:15:29  APR 01, 2014 CP=     17.174

                                                                               

 
  ***** POST1 NODAL DEGREE OF FREEDOM LISTING *****                            
 
  LOAD STEP=     1  SUBSTEP=     1                                             
   TIME=    1.0000      LOAD CASE=   0                                         
 
    NODE      VOLT  
    1366   0.0000    
    1367   0.0000    
    1368   0.0000    
    1369   0.0000    
    1370   0.0000    
    1371   0.0000    
    1372   0.0000    
    1373   0.0000    
    1374   0.0000    
    1375   0.0000    
    1376   0.0000    
    1377   0.0000    
    1378   0.0000    
    1379   0.0000    
    1380   0.0000    
    1381   0.0000    
    1382   0.0000    
    1383   0.0000    
    1384   0.0000    
    1385   0.0000    
    1386   0.0000    
    1387   0.0000    
    1388   0.0000    
    1389   0.0000    
    1390   0.0000    
    1391   0.0000    
    1392   0.0000    
    1393   0.0000    
    1394   0.0000    
    1395   0.0000    
    1396   0.0000    
    1397   0.0000    
    1398   0.0000    
    1399   0.0000    
    1400   0.0000    
    1401   0.0000    
    1402   0.0000    
    1403   0.0000    
    1404   0.0000    
1

 ***** ANSYS - ENGINEERING ANALYSIS SYSTEM  RELEASE 15.0      *****
 ANSYS Academic Teaching Advanced                  
 00203145          VERSION=LINUX x64     15:15:29  APR 01, 2014 CP=     17.175

                                                                               

 
  ***** POST1 NODAL DEGREE OF FREEDOM LISTING *****                            
 
  LOAD STEP=     1  SUBSTEP=     1                                             
   TIME=    1.0000      LOAD CASE=   0                                         
 
    NODE      VOLT  
    1405   0.0000    
    1406   0.0000    
    1407   0.0000    
    1408   0.0000    
    1409   0.0000    
    1410   0.0000    
    1411   0.0000    
    1412   0.0000    
    1413   0.0000    
    1414   0.0000    
    1415   0.0000    
    1416   0.0000    
    1417   0.0000    
    1418   0.0000    
    1419   0.0000    
    1420   0.0000    
    1421   0.0000    
    1422   0.0000    
    1423   0.0000    
    1424   0.0000    
    1425   0.0000    
    1426   0.0000    
    1427   0.0000    
    1428   0.0000    
    1429   0.0000    
    1430   0.0000    
    1431   0.0000    
    1432   0.0000    
    1433   0.0000    
    1434   0.0000    
    1435   0.0000    
    1436   0.0000    
    1437   0.0000    
    1438   0.0000    
    1439   0.0000    
    1440   0.0000    
    1441   0.0000    
    1442   0.0000    
    1443   0.0000    
1

 ***** ANSYS - ENGINEERING ANALYSIS SYSTEM  RELEASE 15.0      *****
 ANSYS Academic Teaching Advanced                  
 00203145          VERSION=LINUX x64     15:15:29  APR 01, 2014 CP=     17.176

                                                                               

 
  ***** POST1 NODAL DEGREE OF FREEDOM LISTING *****                            
 
  LOAD STEP=     1  SUBSTEP=     1                                             
   TIME=    1.0000      LOAD CASE=   0                                         
 
    NODE      VOLT  
    1444   0.0000    
    1445   0.0000    
    1446   0.0000    
    1447   0.0000    
    1448   0.0000    
    1449   0.0000    
    1450   0.0000    
    1451   0.0000    
    1452   0.0000    
    1453   0.0000    
    1454   0.0000    
    1455   0.0000    
    1456   0.0000    
    1457   0.0000    
    1458   0.0000    
    1459   0.0000    
    1460   0.0000    
    1461   0.0000    
    1462   0.0000    
    1463   0.0000    
    1464   0.0000    
    1465   0.0000    
    1466   0.0000    
    1467   0.0000    
    1468   0.0000    
    1469   0.0000    
    1470   0.0000    
    1471   0.0000    
    1472   0.0000    
    1473   0.0000    
    1474   0.0000    
    1475   0.0000    
    1476   0.0000    
    1477   0.0000    
    1478   0.0000    
    1479   0.0000    
    1480   0.0000    
    1481   0.0000    
    1482   0.0000    
1

 ***** ANSYS - ENGINEERING ANALYSIS SYSTEM  RELEASE 15.0      *****
 ANSYS Academic Teaching Advanced                  
 00203145          VERSION=LINUX x64     15:15:29  APR 01, 2014 CP=     17.176

                                                                               

 
  ***** POST1 NODAL DEGREE OF FREEDOM LISTING *****                            
 
  LOAD STEP=     1  SUBSTEP=     1                                             
   TIME=    1.0000      LOAD CASE=   0                                         
 
    NODE      VOLT  
    1483   0.0000    
    1484   0.0000    
    1485   0.0000    
    1486   0.0000    
    1487   0.0000    
    1488   0.0000    
    1489   0.0000    
    1490   0.0000    
    1491   0.0000    
    1492   0.0000    
    1493   0.0000    
    1494   0.0000    
    1495   0.0000    
    1496   0.0000    
    1497   0.0000    
    1498   0.0000    
    1499   0.0000    
    1500   0.0000    
    1501   0.0000    
    1502   0.0000    
    1503   0.0000    
    1504   0.0000    
    1505   0.0000    
    1506   0.0000    
    1507   0.0000    
    1508   0.0000    
    1509   0.0000    
    1510   0.0000    
    1511   0.0000    
    1512   0.0000    
    1513   0.0000    
    1514   0.0000    
    1515   0.0000    
    1516   0.0000    
    1517   0.0000    
    1518   0.0000    
    1519   0.0000    
    1520   0.0000    
    1521   0.0000    
1

 ***** ANSYS - ENGINEERING ANALYSIS SYSTEM  RELEASE 15.0      *****
 ANSYS Academic Teaching Advanced                  
 00203145          VERSION=LINUX x64     15:15:29  APR 01, 2014 CP=     17.177

                                                                               

 
  ***** POST1 NODAL DEGREE OF FREEDOM LISTING *****                            
 
  LOAD STEP=     1  SUBSTEP=     1                                             
   TIME=    1.0000      LOAD CASE=   0                                         
 
    NODE      VOLT  
    1522   0.0000    
    1523   0.0000    
    1524   0.0000    
    1525   0.0000    
    1526   0.0000    
    1527   0.0000    
    1528   0.0000    
    1529   0.0000    
    1530   0.0000    
    1531   0.0000    
    1532   0.0000    
    1533   0.0000    
    1534   0.0000    
    1535   0.0000    
    1536   0.0000    
    1537   0.0000    
    1538   0.0000    
    1539   0.0000    
    1540   0.0000    
    1541   0.0000    
    1542   0.0000    
    1543   0.0000    
    1544   0.0000    
    1545   0.0000    
    1546   0.0000    
    1547   0.0000    
    1548   0.0000    
    1549   0.0000    
    1550   0.0000    
    1551   0.0000    
    1552   0.0000    
    1553   0.0000    
    1554   0.0000    
    1555   0.0000    
    1556   0.0000    
    1557   0.0000    
    1558   0.0000    
    1559   0.0000    
    1560   0.0000    
1

 ***** ANSYS - ENGINEERING ANALYSIS SYSTEM  RELEASE 15.0      *****
 ANSYS Academic Teaching Advanced                  
 00203145          VERSION=LINUX x64     15:15:29  APR 01, 2014 CP=     17.178

                                                                               

 
  ***** POST1 NODAL DEGREE OF FREEDOM LISTING *****                            
 
  LOAD STEP=     1  SUBSTEP=     1                                             
   TIME=    1.0000      LOAD CASE=   0                                         
 
    NODE      VOLT  
    1561   0.0000    
    1562   0.0000    
    1563   0.0000    
    1564   0.0000    
    1565   0.0000    
    1566   0.0000    
    1567   0.0000    
    1568   0.0000    
    1569   0.0000    
    1570   0.0000    
    1571   0.0000    
    1572   0.0000    
    1573   0.0000    
    1574   0.0000    
    1575   0.0000    
    1576   0.0000    
    1577   0.0000    
    1578   0.0000    
    1579   0.0000    
    1580   0.0000    
    1581   0.0000    
    1582   0.0000    
    1583   0.0000    
    1584   0.0000    
    1585   0.0000    
    1586   0.0000    
    1587   0.0000    
    1588   0.0000    
    1589   0.0000    
    1590   0.0000    
    1591   0.0000    
    1592   0.0000    
    1593   0.0000    
    1594   0.0000    
    1595   0.0000    
    1596   0.0000    
    1597   0.0000    
    1598   0.0000    
    1599   0.0000    
1

 ***** ANSYS - ENGINEERING ANALYSIS SYSTEM  RELEASE 15.0      *****
 ANSYS Academic Teaching Advanced                  
 00203145          VERSION=LINUX x64     15:15:29  APR 01, 2014 CP=     17.179

                                                                               

 
  ***** POST1 NODAL DEGREE OF FREEDOM LISTING *****                            
 
  LOAD STEP=     1  SUBSTEP=     1                                             
   TIME=    1.0000      LOAD CASE=   0                                         
 
    NODE      VOLT  
    1600   0.0000    
    1601   0.0000    
    1602   0.0000    
    1603   0.0000    
    1604   0.0000    
    1605   0.0000    
    1606   0.0000    
    1607   0.0000    
    1608   0.0000    
    1609   0.0000    
    1610   0.0000    
    1611   0.0000    
    1612   0.0000    
    1613   0.0000    
    1614   0.0000    
    1615   0.0000    
    1616   0.0000    
    1617   0.0000    
    1618   0.0000    
    1619   0.0000    
    1620   0.0000    
    1621   0.0000    
    1622   0.0000    
    1623   0.0000    
    1624   0.0000    
    1625   0.0000    
    1626   0.0000    
    1627   0.0000    
    1628   0.0000    
    1629   0.0000    
    1630   0.0000    
    1631   0.0000    
    1632   0.0000    
    1633   0.0000    
    1634   0.0000    
    1635   0.0000    
    1636   0.0000    
    1637   0.0000    
    1638   0.0000    
1

 ***** ANSYS - ENGINEERING ANALYSIS SYSTEM  RELEASE 15.0      *****
 ANSYS Academic Teaching Advanced                  
 00203145          VERSION=LINUX x64     15:15:29  APR 01, 2014 CP=     17.179

                                                                               

 
  ***** POST1 NODAL DEGREE OF FREEDOM LISTING *****                            
 
  LOAD STEP=     1  SUBSTEP=     1                                             
   TIME=    1.0000      LOAD CASE=   0                                         
 
    NODE      VOLT  
    1639   0.0000    
    1640   0.0000    
    1641   0.0000    
    1642   0.0000    
    1643   0.0000    
    1644   0.0000    
    1645   0.0000    
    1646   0.0000    
    1647   0.0000    
    1648   0.0000    
    1649   0.0000    
    1650   0.0000    
    1651   0.0000    
    1652   0.0000    
    1653   0.0000    
    1654   0.0000    
    1655   0.0000    
    1656   0.0000    
    1657   0.0000    
    1658   0.0000    
    1659   0.0000    
    1660   0.0000    
    1661   0.0000    
    1662   0.0000    
    1663   0.0000    
    1664   0.0000    
    1665   0.0000    
    1666   0.0000    
    1667   0.0000    
    1668   0.0000    
    1669   0.0000    
    1670   0.0000    
    1671   0.0000    
    1672   0.0000    
    1673   0.0000    
    1674   0.0000    
    1675   0.0000    
    1676   0.0000    
    1677   0.0000    
1

 ***** ANSYS - ENGINEERING ANALYSIS SYSTEM  RELEASE 15.0      *****
 ANSYS Academic Teaching Advanced                  
 00203145          VERSION=LINUX x64     15:15:29  APR 01, 2014 CP=     17.180

                                                                               

 
  ***** POST1 NODAL DEGREE OF FREEDOM LISTING *****                            
 
  LOAD STEP=     1  SUBSTEP=     1                                             
   TIME=    1.0000      LOAD CASE=   0                                         
 
    NODE      VOLT  
    1678   0.0000    
    1679   0.0000    
    1680   0.0000    
    1681   0.0000    
    1682   0.0000    
    1683   0.0000    
    1684   0.0000    
    1685   0.0000    
    1686   0.0000    
    1687   0.0000    
    1688   0.0000    
    1689   0.0000    
    1690   0.0000    
    1691   0.0000    
    1692   0.0000    
    1693   0.0000    
    1694   0.0000    
    1695   0.0000    
    1696   0.0000    
    1697   0.0000    
    1698   0.0000    
    1699   0.0000    
    1700   0.0000    
    1701   0.0000    
    1702   0.0000    
    1703   0.0000    
    1704   0.0000    
    1705   0.0000    
    1706   0.0000    
    1707   0.0000    
    1708   0.0000    
    1709   0.0000    
    1710   0.0000    
    1711   0.0000    
    1712   0.0000    
    1713   0.0000    
    1714   0.0000    
    1715   0.0000    
    1716   0.0000    
1

 ***** ANSYS - ENGINEERING ANALYSIS SYSTEM  RELEASE 15.0      *****
 ANSYS Academic Teaching Advanced                  
 00203145          VERSION=LINUX x64     15:15:29  APR 01, 2014 CP=     17.181

                                                                               

 
  ***** POST1 NODAL DEGREE OF FREEDOM LISTING *****                            
 
  LOAD STEP=     1  SUBSTEP=     1                                             
   TIME=    1.0000      LOAD CASE=   0                                         
 
    NODE      VOLT  
    1717   0.0000    
    1718   0.0000    
    1719   0.0000    
    1720   0.0000    
    1721   0.0000    
    1722   0.0000    
    1723   0.0000    
    1724   0.0000    
    1725   0.0000    
    1726   0.0000    
    1727   0.0000    
    1728   0.0000    
    1729   0.0000    
    1730   0.0000    
    1731   0.0000    
    1732   0.0000    
    1733   0.0000    
    1734   0.0000    
    1735   0.0000    
    1736   0.0000    
    1737   0.0000    
    1738   0.0000    
    1739   0.0000    
    1740   0.0000    
    1741   0.0000    
    1742   0.0000    
    1743   0.0000    
    1744   0.0000    
    1745   0.0000    
    1746   0.0000    
    1747   0.0000    
    1748   0.0000    
    1749   0.0000    
    1750   0.0000    
    1751   0.0000    
    1752   0.0000    
    1753   0.0000    
    1754   0.0000    
    1755   0.0000    
1

 ***** ANSYS - ENGINEERING ANALYSIS SYSTEM  RELEASE 15.0      *****
 ANSYS Academic Teaching Advanced                  
 00203145          VERSION=LINUX x64     15:15:29  APR 01, 2014 CP=     17.181

                                                                               

 
  ***** POST1 NODAL DEGREE OF FREEDOM LISTING *****                            
 
  LOAD STEP=     1  SUBSTEP=     1                                             
   TIME=    1.0000      LOAD CASE=   0                                         
 
    NODE      VOLT  
    1756   0.0000    
    1757   0.0000    
    1758   0.0000    
    1759   0.0000    
    1760   0.0000    
    1761   0.0000    
    1762   0.0000    
    1763   0.0000    
    1764   0.0000    
    1765   0.0000    
    1766   0.0000    
    1767   0.0000    
    1768   0.0000    
    1769   0.0000    
    1770   0.0000    
    1771   0.0000    
    1772   0.0000    
    1773   0.0000    
    1774  0.96479E-03
    1775  0.95306E-03
    1776  0.96256E-03
    1777  0.95892E-03
    1778  0.49314E-03
    1779  0.94650E-03
    1780  0.93195E-03
    1781  0.78074E-03
    1782  0.68846E-03
    1783  0.36988E-03
    1784  0.67593E-03
    1785  0.37188E-03
    1786  0.93060E-03
    1787  0.93585E-03
    1788  0.90441E-03
    1789  0.90518E-03
    1790  0.95238E-03
    1791  0.89961E-03
    1792  0.93555E-03
    1793  0.90308E-03
    1794  0.96418E-03
1

 ***** ANSYS - ENGINEERING ANALYSIS SYSTEM  RELEASE 15.0      *****
 ANSYS Academic Teaching Advanced                  
 00203145          VERSION=LINUX x64     15:15:29  APR 01, 2014 CP=     17.182

                                                                               

 
  ***** POST1 NODAL DEGREE OF FREEDOM LISTING *****                            
 
  LOAD STEP=     1  SUBSTEP=     1                                             
   TIME=    1.0000      LOAD CASE=   0                                         
 
    NODE      VOLT  
    1795  0.95635E-03
    1796  0.95936E-03
    1797  0.95287E-03
    1798  0.94983E-03
    1799  0.95210E-03
    1800  0.96036E-03
    1801  0.96005E-03
    1802  0.96186E-03
    1803  0.95952E-03
    1804  0.95740E-03
    1805  0.95941E-03
    1806  0.96253E-03
    1807  0.96293E-03
    1808  0.91284E-03
    1809  0.90522E-03
    1810  0.92286E-03
    1811  0.92371E-03
    1812  0.91618E-03
    1813  0.92260E-03
    1814  0.89145E-03
    1815  0.89144E-03
    1816  0.90986E-03
    1817  0.90952E-03
    1818  0.89562E-03
    1819  0.92385E-03
    1820  0.94919E-03
    1821  0.92200E-03
    1822  0.87969E-03
    1823  0.82227E-03
    1824  0.93999E-03
    1825  0.94037E-03
    1826  0.94367E-03
    1827  0.79231E-03
    1828  0.82507E-03
    1829  0.83256E-03
    1830  0.82178E-03
    1831  0.80859E-03
    1832  0.80444E-03
    1833  0.77382E-03
1

 ***** ANSYS - ENGINEERING ANALYSIS SYSTEM  RELEASE 15.0      *****
 ANSYS Academic Teaching Advanced                  
 00203145          VERSION=LINUX x64     15:15:29  APR 01, 2014 CP=     17.183

                                                                               

 
  ***** POST1 NODAL DEGREE OF FREEDOM LISTING *****                            
 
  LOAD STEP=     1  SUBSTEP=     1                                             
   TIME=    1.0000      LOAD CASE=   0                                         
 
    NODE      VOLT  
    1834  0.91665E-03
    1835  0.95535E-03
    1836  0.95768E-03
    1837  0.91697E-03
    1838  0.82279E-03
    1839  0.90766E-03
    1840  0.90613E-03
    1841  0.90383E-03
    1842  0.90536E-03
    1843  0.91100E-03
    1844  0.91043E-03
    1845  0.90719E-03
    1846  0.90920E-03
    1847  0.50649E-03
    1848  0.51131E-03
    1849  0.54216E-03
    1850  0.58545E-03
    1851  0.56491E-03
    1852  0.53939E-03
    1853  0.59987E-03
    1854  0.58216E-03
    1855  0.58421E-03
    1856  0.56774E-03
    1857  0.56185E-03
    1858  0.55168E-03
    1859  0.53742E-03
    1860  0.56671E-03
    1861  0.48504E-03
    1862  0.46476E-03
    1863  0.95542E-03
    1864  0.96274E-03
    1865  0.74571E-03
    1866  0.88172E-03
    1867  0.76257E-03
    1868  0.96743E-03
    1869  0.73877E-03
    1870  0.79596E-03
    1871  0.79917E-03
    1872  0.80600E-03
1

 ***** ANSYS - ENGINEERING ANALYSIS SYSTEM  RELEASE 15.0      *****
 ANSYS Academic Teaching Advanced                  
 00203145          VERSION=LINUX x64     15:15:29  APR 01, 2014 CP=     17.184

                                                                               

 
  ***** POST1 NODAL DEGREE OF FREEDOM LISTING *****                            
 
  LOAD STEP=     1  SUBSTEP=     1                                             
   TIME=    1.0000      LOAD CASE=   0                                         
 
    NODE      VOLT  
    1873  0.82736E-03
    1874  0.83756E-03
    1875  0.80777E-03
    1876  0.94105E-03
    1877  0.94619E-03
    1878  0.93646E-03
    1879  0.94415E-03
    1880  0.88456E-03
    1881  0.96022E-03
    1882  0.94379E-03
    1883  0.95613E-03
    1884  0.93976E-03
    1885  0.96073E-03
    1886  0.95755E-03
    1887  0.94969E-03
    1888  0.92239E-03
    1889  0.92146E-03
    1890  0.61460E-03
    1891  0.42614E-03
    1892  0.28926E-03
    1893  0.15812E-03
    1894  0.39869E-03
    1895  0.74874E-03
    1896  0.79598E-04
    1897  0.43255E-04
    1898  0.34226E-04
    1899  0.20197E-03
    1900  0.29801E-03
    1901  0.23546E-03
    1902  0.15979E-03
    1903  0.12191E-03
    1904  0.13454E-03
    1905  0.15707E-03
    1906  0.16429E-03
    1907  0.76320E-03
    1908  0.57825E-03
    1909  0.57374E-03
    1910  0.45952E-03
    1911  0.19082E-03
1

 ***** ANSYS - ENGINEERING ANALYSIS SYSTEM  RELEASE 15.0      *****
 ANSYS Academic Teaching Advanced                  
 00203145          VERSION=LINUX x64     15:15:29  APR 01, 2014 CP=     17.184

                                                                               

 
  ***** POST1 NODAL DEGREE OF FREEDOM LISTING *****                            
 
  LOAD STEP=     1  SUBSTEP=     1                                             
   TIME=    1.0000      LOAD CASE=   0                                         
 
    NODE      VOLT  
    1912  0.23620E-03
    1913  0.91129E-04
    1914  0.62929E-04
    1915  0.98645E-04
    1916  0.11772E-03
    1917  0.78701E-04
    1918  0.42904E-03
    1919  0.33155E-03
    1920  0.71870E-03
    1921  0.62735E-04
    1922  0.20001E-03
    1923  0.28027E-03
    1924  0.19872E-03
    1925  0.13322E-03
    1926  0.42956E-04
    1927  0.67768E-04
    1928  0.57501E-04
    1929  0.54248E-03
    1930  0.64811E-03
    1931  0.47568E-04
    1932  0.53607E-04
    1933  0.38549E-04
    1934  0.36005E-04
    1935  0.72454E-04
    1936  0.96145E-04
    1937  0.43094E-03
    1938  0.12661E-03
    1939  0.34242E-03
    1940  0.61562E-03
    1941  0.21785E-03
    1942  0.16850E-03
    1943  0.36429E-03
    1944  0.40981E-03
    1945  0.37056E-03
    1946  0.53453E-03
    1947  0.74306E-03
    1948  0.80674E-04
    1949  0.90369E-04
    1950  0.28492E-03
1

 ***** ANSYS - ENGINEERING ANALYSIS SYSTEM  RELEASE 15.0      *****
 ANSYS Academic Teaching Advanced                  
 00203145          VERSION=LINUX x64     15:15:29  APR 01, 2014 CP=     17.185

                                                                               

 
  ***** POST1 NODAL DEGREE OF FREEDOM LISTING *****                            
 
  LOAD STEP=     1  SUBSTEP=     1                                             
   TIME=    1.0000      LOAD CASE=   0                                         
 
    NODE      VOLT  
    1951  0.54933E-03
    1952  0.66706E-03
    1953  0.77852E-03
    1954  0.59467E-03
    1955  0.77946E-03
    1956  0.35035E-03
    1957  0.37635E-03
    1958  0.37633E-03
    1959  0.37654E-03
    1960  0.36685E-03
    1961  0.29399E-03
    1962  0.28540E-03
    1963  0.28779E-03
    1964  0.30263E-03
    1965  0.28648E-03
    1966  0.37214E-03
    1967  0.45526E-03
    1968  0.45132E-03
    1969  0.32192E-03
    1970  0.35280E-03
    1971  0.45608E-03
    1972  0.23341E-03
    1973  0.22886E-03
    1974  0.23239E-03
    1975  0.23034E-03
    1976  0.21895E-03
    1977  0.21963E-03
    1978  0.23317E-03
    1979  0.23524E-03
    1980  0.23516E-03
    1981  0.23077E-03
    1982  0.21658E-03
    1983  0.20750E-03
    1984  0.55981E-03
    1985  0.56999E-03
    1986  0.53865E-03
    1987  0.54161E-03
    1988  0.55310E-03
    1989  0.55219E-03
1

 ***** ANSYS - ENGINEERING ANALYSIS SYSTEM  RELEASE 15.0      *****
 ANSYS Academic Teaching Advanced                  
 00203145          VERSION=LINUX x64     15:15:29  APR 01, 2014 CP=     17.186

                                                                               

 
  ***** POST1 NODAL DEGREE OF FREEDOM LISTING *****                            
 
  LOAD STEP=     1  SUBSTEP=     1                                             
   TIME=    1.0000      LOAD CASE=   0                                         
 
    NODE      VOLT  
    1990  0.26290E-03
    1991  0.54526E-03
    1992  0.17083E-03
    1993  0.17558E-03
    1994  0.16907E-03
    1995  0.16765E-03
    1996  0.17015E-03
    1997  0.16832E-03
    1998  0.15543E-03
    1999  0.65057E-03
    2000  0.68190E-03
    2001  0.66404E-03
    2002  0.66115E-03
    2003  0.46720E-03
    2004  0.25243E-03
    2005  0.73791E-03
    2006  0.56061E-03
    2007  0.14755E-03
    2008  0.21939E-03
    2009  0.36872E-03
    2010  0.48611E-03
    2011  0.92686E-04
    2012  0.92588E-04
    2013  0.99625E-04
    2014  0.97160E-04
    2015  0.90209E-04
    2016  0.92431E-04
    2017  0.93673E-04
    2018  0.95813E-04
    2019  0.92759E-04
    2020  0.90704E-04
    2021  0.92695E-04
    2022  0.92102E-04
    2023  0.90412E-04
    2024  0.89629E-04
    2025  0.79352E-04
    2026  0.79998E-04
    2027  0.79136E-03
    2028  0.79270E-03
1

 ***** ANSYS - ENGINEERING ANALYSIS SYSTEM  RELEASE 15.0      *****
 ANSYS Academic Teaching Advanced                  
 00203145          VERSION=LINUX x64     15:15:29  APR 01, 2014 CP=     17.187

                                                                               

 
  ***** POST1 NODAL DEGREE OF FREEDOM LISTING *****                            
 
  LOAD STEP=     1  SUBSTEP=     1                                             
   TIME=    1.0000      LOAD CASE=   0                                         
 
    NODE      VOLT  
    2029  0.77309E-03
    2030  0.77356E-03
    2031  0.77013E-03
    2032  0.76873E-03
    2033  0.77178E-03
    2034  0.77079E-03
    2035  0.22528E-03
    2036  0.15478E-03
    2037  0.43194E-03
    2038  0.32482E-03
    2039  0.35216E-03
    2040  0.15704E-03
    2041  0.65752E-03
    2042  0.65543E-03
    2043  0.66227E-03
    2044  0.69481E-03
    2045  0.14391E-03
    2046  0.16232E-03
    2047  0.17142E-03
    2048  0.16702E-03
    2049  0.16510E-03
    2050  0.16939E-03
    2051  0.17904E-03
    2052  0.44455E-03
    2053  0.60242E-03
    2054  0.45911E-03
    2055  0.43539E-03
    2056  0.46467E-03
    2057  0.26993E-03
    2058  0.30017E-03
    2059  0.30044E-03
    2060  0.27232E-03
    2061  0.29575E-03
    2062  0.28836E-03
    2063  0.66923E-03
    2064  0.30146E-03
    2065  0.15495E-03
    2066  0.67607E-04
    2067  0.12265E-03
1

 ***** ANSYS - ENGINEERING ANALYSIS SYSTEM  RELEASE 15.0      *****
 ANSYS Academic Teaching Advanced                  
 00203145          VERSION=LINUX x64     15:15:29  APR 01, 2014 CP=     17.187

                                                                               

 
  ***** POST1 NODAL DEGREE OF FREEDOM LISTING *****                            
 
  LOAD STEP=     1  SUBSTEP=     1                                             
   TIME=    1.0000      LOAD CASE=   0                                         
 
    NODE      VOLT  
    2068  0.32083E-04
    2069  0.88855E-04
    2070  0.74879E-04
    2071  0.36109E-03
    2072  0.64184E-03
    2073  0.87860E-04
    2074  0.80286E-04
    2075  0.17613E-04
    2076  0.63777E-04
    2077  0.65396E-04
    2078  0.53226E-04
    2079  0.17623E-04
    2080  0.17801E-04
    2081  0.50152E-04
    2082  0.23733E-04
    2083  0.52139E-04
    2084  0.23825E-04
    2085  0.46785E-03
    2086  0.96941E-04
    2087  0.82143E-04
    2088  0.98972E-04
    2089  0.88050E-04
    2090  0.11118E-03
    2091  0.12858E-03
    2092  0.76967E-04
    2093  0.10922E-03
    2094  0.83956E-04
    2095  0.10099E-03
    2096  0.13477E-03
    2097  0.10307E-03
    2098  0.31486E-03
    2099  0.10333E-03
    2100  0.65951E-03
    2101  0.11446E-03
    2102  0.13138E-03
    2103  0.27811E-03
    2104  0.76154E-04
    2105  0.57293E-04
    2106  0.64083E-04
1

 ***** ANSYS - ENGINEERING ANALYSIS SYSTEM  RELEASE 15.0      *****
 ANSYS Academic Teaching Advanced                  
 00203145          VERSION=LINUX x64     15:15:29  APR 01, 2014 CP=     17.188

                                                                               

 
  ***** POST1 NODAL DEGREE OF FREEDOM LISTING *****                            
 
  LOAD STEP=     1  SUBSTEP=     1                                             
   TIME=    1.0000      LOAD CASE=   0                                         
 
    NODE      VOLT  
    2107  0.17345E-03
    2108  0.14427E-03
    2109  0.13727E-03
    2110  0.13084E-03
    2111  0.13419E-03
    2112  0.11044E-03
    2113  0.10913E-03
    2114  0.12664E-03
    2115  0.11874E-03
    2116  0.11592E-03
    2117  0.12430E-03
    2118  0.23390E-03
    2119  0.97264E-04
    2120  0.11223E-03
    2121  0.99944E-04
    2122  0.14218E-03
    2123  0.19751E-03
    2124  0.19717E-03
    2125  0.97619E-04
    2126  0.94668E-04
    2127  0.99975E-04
    2128  0.16122E-03
    2129  0.77270E-04
    2130  0.87276E-04
    2131  0.70380E-04
    2132  0.83493E-04
    2133  0.85915E-04
    2134  0.68551E-04
    2135  0.94070E-04
    2136  0.74259E-04
    2137  0.10017E-03
    2138  0.11652E-03
    2139  0.90811E-04
    2140  0.37886E-03
    2141  0.49064E-03
    2142  0.66674E-03
    2143  0.82109E-04
    2144  0.11696E-03
    2145  0.58823E-04
1

 ***** ANSYS - ENGINEERING ANALYSIS SYSTEM  RELEASE 15.0      *****
 ANSYS Academic Teaching Advanced                  
 00203145          VERSION=LINUX x64     15:15:29  APR 01, 2014 CP=     17.189

                                                                               

 
  ***** POST1 NODAL DEGREE OF FREEDOM LISTING *****                            
 
  LOAD STEP=     1  SUBSTEP=     1                                             
   TIME=    1.0000      LOAD CASE=   0                                         
 
    NODE      VOLT  
    2146  0.59411E-04
    2147  0.59581E-04
    2148  0.57719E-04
    2149  0.52527E-04
    2150  0.51866E-04
    2151  0.55399E-04
    2152  0.57644E-04
    2153  0.58127E-04
    2154  0.63500E-04
    2155  0.76502E-04
    2156  0.85277E-04
    2157  0.44345E-04
    2158  0.38121E-04
    2159  0.38547E-04
    2160  0.36863E-04
    2161  0.37522E-04
    2162  0.42432E-04
    2163  0.50536E-04
    2164  0.89060E-04
    2165  0.13986E-03
    2166  0.20477E-03
    2167  0.59435E-03
    2168  0.48267E-03
    2169  0.46543E-04
    2170  0.48500E-04
    2171  0.35319E-04
    2172  0.31223E-04
    2173  0.32881E-04
    2174  0.30495E-04
    2175  0.30380E-04
    2176  0.29866E-04
    2177  0.49961E-04
    2178  0.41606E-04
    2179  0.25566E-03
    2180  0.17097E-03
    2181  0.27818E-04
    2182  0.27150E-04
    2183  0.26331E-04
    2184  0.18836E-04
1

 ***** ANSYS - ENGINEERING ANALYSIS SYSTEM  RELEASE 15.0      *****
 ANSYS Academic Teaching Advanced                  
 00203145          VERSION=LINUX x64     15:15:29  APR 01, 2014 CP=     17.190

                                                                               

 
  ***** POST1 NODAL DEGREE OF FREEDOM LISTING *****                            
 
  LOAD STEP=     1  SUBSTEP=     1                                             
   TIME=    1.0000      LOAD CASE=   0                                         
 
    NODE      VOLT  
    2185  0.18004E-04
    2186  0.20618E-04
    2187  0.19740E-04
    2188  0.19508E-04
    2189  0.19006E-04
    2190  0.18569E-04
    2191  0.18813E-04
    2192  0.19483E-04
    2193  0.20780E-04
    2194  0.22336E-04
    2195  0.25033E-04
    2196  0.25853E-04
    2197  0.30481E-04
    2198  0.60361E-04
    2199  0.74459E-04
    2200  0.13879E-03
    2201  0.55313E-04
    2202  0.46779E-04
    2203  0.39526E-04
    2204  0.36639E-04
    2205  0.37730E-04
    2206  0.39685E-04
    2207  0.36314E-04
[...]
 
    NODE      VOLT  
   11545  0.10206E-04
   11546  0.95703E-05
   11547  0.92488E-05
   11548  0.13379E-04
   11549  0.93088E-05
   11550  0.12721E-04
   11551  0.94368E-05
   11552  0.18006E-02
   11553  0.77306E-04
   11554  0.23851E-04
   11555  0.17235E-04
   11556  0.24819E-04
   11557  0.16328E-04
   11558  0.86261E-05
   11559  0.88910E-05
   11560  0.20611E-04
   11561  0.28209E-04
   11562  0.32020E-04
   11563  0.96593E-05
   11564  0.10931E-04
   11565  0.30485E-04
   11566  0.28965E-04
   11567  0.29791E-04
   11568  0.91894E-03
   11569  0.13156E-02
   11570  0.11181E-02
   11571  0.32793E-02
   11572  0.17701E-02
   11573  0.17717E-02
   11574  0.32121E-02
   11575  0.24565E-02
   11576  0.22120E-02
   11577  0.19342E-02
   11578  0.24343E-02
   11579  0.21849E-02
   11580  0.75999E-02
   11581  0.33587E-02
   11582  0.12314E-01
   11583  0.96897E-02
1

 ***** ANSYS - ENGINEERING ANALYSIS SYSTEM  RELEASE 15.0      *****
 ANSYS Academic Teaching Advanced                  
 00203145          VERSION=LINUX x64     15:15:29  APR 01, 2014 CP=     17.343

                                                                               

 
  ***** POST1 NODAL DEGREE OF FREEDOM LISTING *****                            
 
  LOAD STEP=     1  SUBSTEP=     1                                             
   TIME=    1.0000      LOAD CASE=   0                                         
 
    NODE      VOLT  
   11584  0.37517E-02
   11585  0.50871E-02
   11586  0.86994E-02
   11587  0.44077E-02
   11588  0.45993E-02
   11589  0.37207E-02
   11590  0.31346E-02
   11591  0.45135E-02
   11592  0.37187E-02
   11593  0.52709E-02
   11594  0.18568E-02
   11595  0.42388E-04
   11596  0.26073E-04
   11597  0.13137E-04
   11598  0.10133E-04
   11599  0.30027E-04
   11600  0.15041E-04
   11601  0.12073E-04
   11602  0.15870E-04
   11603  0.29306E-02
   11604  0.59855E-03
   11605  0.51051E-02
   11606  0.35347E-03
   11607  0.76851E-04
   11608  0.61816E-03
   11609  0.46878E-03
   11610  0.54431E-02
   11611  0.12518E-02
   11612  0.90035E-03
   11613  0.15769E-02
   11614  0.66728E-03
   11615  0.88123E-03
   11616  0.52993E-03
   11617  0.77161E-03
   11618  0.10191E-02
   11619  0.58197E-03
   11620  0.63168E-03
   11621  0.77759E-03
   11622  0.83151E-03
1

 ***** ANSYS - ENGINEERING ANALYSIS SYSTEM  RELEASE 15.0      *****
 ANSYS Academic Teaching Advanced                  
 00203145          VERSION=LINUX x64     15:15:29  APR 01, 2014 CP=     17.343

                                                                               

 
  ***** POST1 NODAL DEGREE OF FREEDOM LISTING *****                            
 
  LOAD STEP=     1  SUBSTEP=     1                                             
   TIME=    1.0000      LOAD CASE=   0                                         
 
    NODE      VOLT  
   11623  0.90141E-03
   11624  0.64247E-03
   11625  0.20028E-02
   11626  0.63213E-03
   11627  0.56623E-03
   11628  0.60924E-03
   11629  0.45654E-03
   11630  0.91360E-03
   11631  0.36354E-03
   11632  0.72728E-04
   11633  0.77857E-04
   11634  0.87539E-04
   11635  0.60478E-03
   11636  0.76095E-03
   11637  0.93493E-03
   11638  0.75480E-03
   11639  0.79146E-03
   11640  0.11043E-02
   11641  0.37740E-03
   11642  0.24968E-03
   11643  0.22436E-03
   11644  0.11290E-03
   11645  0.84475E-04
   11646  0.16815E-03
   11647  0.14347E-03
   11648  0.13975E-03
   11649  0.16346E-03
   11650  0.32055E-03
   11651  0.44885E-03
   11652  0.93185    
   11653  0.96858    
   11654  0.92836    
   11655  0.91090    
   11656  0.92836    
   11657  0.91090    
   11658  0.93185    
   11659  0.96858    
   11660  0.86466    
   11661  0.91090    
1

 ***** ANSYS - ENGINEERING ANALYSIS SYSTEM  RELEASE 15.0      *****
 ANSYS Academic Teaching Advanced                  
 00203145          VERSION=LINUX x64     15:15:29  APR 01, 2014 CP=     17.343

                                                                               

 
  ***** POST1 NODAL DEGREE OF FREEDOM LISTING *****                            
 
  LOAD STEP=     1  SUBSTEP=     1                                             
   TIME=    1.0000      LOAD CASE=   0                                         
 
    NODE      VOLT  
   11662  0.91090    
   11663  0.96858    
   11664  0.85517    
   11665  0.86466    
   11666  0.82820    
   11667  0.94403E-02
   11668  0.96439E-02
   11669  0.26813E-02
   11670  0.26872E-02
   11671  0.27128E-02
   11672  0.12899E-01
   11673  0.82865E-02
   11674  0.16229E-03
   11675  0.23618E-03
   11676  0.13577E-04
   11677  0.98040E-05
   11678  0.83869E-05
   11679  0.17820E-04
   11680  0.10281E-04
   11681  0.85165E-05
   11682  0.17030E-04
   11683  0.91493E-05
   11684  0.38249E-04
   11685  0.25035E-04
   11686  0.89712E-05
   11687  0.90128E-05
   11688  0.16665E-04
   11689  0.83779E-05
   11690  0.12402E-04
   11691  0.88260E-05
   11692  0.13046E-04
   11693  0.11976E-04
   11694  0.95191E-05
   11695  0.25074E-03
   11696  0.19553E-03
   11697  0.22031E-03
   11698  0.16433E-03
   11699  0.23574E-04
   11700  0.14288E-04
1

 ***** ANSYS - ENGINEERING ANALYSIS SYSTEM  RELEASE 15.0      *****
 ANSYS Academic Teaching Advanced                  
 00203145          VERSION=LINUX x64     15:15:29  APR 01, 2014 CP=     17.344

                                                                               

 
  ***** POST1 NODAL DEGREE OF FREEDOM LISTING *****                            
 
  LOAD STEP=     1  SUBSTEP=     1                                             
   TIME=    1.0000      LOAD CASE=   0                                         
 
    NODE      VOLT  
   11701  0.10718E-04
   11702  0.10950E-04
   11703  0.20623E-04
   11704  0.12080E-04
   11705  0.95386E-05
   11706  0.28399E-04
   11707  0.21245E-04
   11708  0.69747E-05
   11709  0.11119E-04
   11710  0.94120E-05
   11711  0.97525E-05
   11712  0.16790E-03
   11713  0.11100E-03
   11714  0.41288E-02
   11715  0.12731E-01
   11716  0.49381E-02
   11717  0.61159E-02
   11718  0.26099E-02
   11719  0.24357E-02
   11720  0.51234E-03
   11721  0.10904E-02
   11722  0.16042E-02
   11723  0.27275E-03
   11724  0.37723E-03
   11725  0.69373E-04
   11726  0.27671E-03
   11727  0.38198E-03
   11728  0.11506E-03
   11729  0.26001E-03
   11730  0.16030E-02
   11731  0.22544E-02
   11732  0.46894E-03
   11733  0.32813E-03
   11734  0.74464E-03
   11735  0.16554E-02
   11736  0.15390E-02
   11737  0.20244E-02
   11738  0.80950E-04
   11739  0.26689E-04
1

 ***** ANSYS - ENGINEERING ANALYSIS SYSTEM  RELEASE 15.0      *****
 ANSYS Academic Teaching Advanced                  
 00203145          VERSION=LINUX x64     15:15:29  APR 01, 2014 CP=     17.344

                                                                               

 
  ***** POST1 NODAL DEGREE OF FREEDOM LISTING *****                            
 
  LOAD STEP=     1  SUBSTEP=     1                                             
   TIME=    1.0000      LOAD CASE=   0                                         
 
    NODE      VOLT  
   11740  0.11026E-04
   11741  0.22260E-04
   11742  0.25009E-03
   11743  0.76553E-04
   11744  0.10905E-03
   11745  0.27211E-03
   11746  0.29472E-03
   11747  0.20189E-03
   11748  0.21500E-04
   11749  0.48376E-04
   11750  0.18846E-04
   11751  0.19828E-04
   11752  0.96920E-05
   11753  0.91069E-05
   11754  0.94406E-05
   11755  0.11019E-03
   11756  0.26253E-02
   11757  0.45571E-02
   11758  0.29826E-02
   11759  0.53782E-02
   11760  0.21727E-02
   11761  0.40292E-02
   11762  0.88978E-02
   11763  0.89119E-02
   11764  0.29430E-02
   11765  0.35280E-02
   11766  0.54440E-02
   11767  0.11666E-01
   11768  0.72650E-04
   11769  0.70636E-04
   11770  0.88369E-04
   11771  0.86193E-04
   11772  0.94915E-05
   11773  0.86615E-05
   11774  0.15194E-04
   11775  0.17921E-04
   11776  0.14957E-04
   11777  0.12247E-04
   11778  0.92539E-05
1

 ***** ANSYS - ENGINEERING ANALYSIS SYSTEM  RELEASE 15.0      *****
 ANSYS Academic Teaching Advanced                  
 00203145          VERSION=LINUX x64     15:15:29  APR 01, 2014 CP=     17.345

                                                                               

 
  ***** POST1 NODAL DEGREE OF FREEDOM LISTING *****                            
 
  LOAD STEP=     1  SUBSTEP=     1                                             
   TIME=    1.0000      LOAD CASE=   0                                         
 
    NODE      VOLT  
   11779  0.15010E-04
   11780  0.12387E-05
   11781  0.10919E-04
   11782  0.95771E-05
   11783  0.98889E-05
   11784  0.15936E-04
   11785  0.10711E-04
   11786  0.14129E-04
   11787  0.32392E-04
   11788  0.28496E-04
   11789  0.37526E-04
   11790  0.71841E-04
   11791  0.62927E-04
   11792  0.97204E-04
   11793  0.57970E-04
   11794  0.13780E-03
   11795  0.10641E-03
   11796  0.16092E-03
   11797  0.15251E-03
   11798  0.55699E-04
   11799  0.14016E-03
   11800  0.67619E-02
   11801  0.18651E-02
   11802  0.30147E-02
   11803  0.33019E-02
   11804  0.45467E-02
   11805  0.44402E-02
   11806  0.63235E-04
   11807  0.12571E-04
   11808  0.11580E-04
   11809  0.38786E-04
   11810  0.36255E-04
   11811  0.49792E-04
   11812  0.48497E-04
   11813  0.58118E-04
   11814  0.50665E-04
   11815  0.10570E-04
   11816  0.32788E-03
   11817  0.11690E-03
1

 ***** ANSYS - ENGINEERING ANALYSIS SYSTEM  RELEASE 15.0      *****
 ANSYS Academic Teaching Advanced                  
 00203145          VERSION=LINUX x64     15:15:29  APR 01, 2014 CP=     17.345

                                                                               

 
  ***** POST1 NODAL DEGREE OF FREEDOM LISTING *****                            
 
  LOAD STEP=     1  SUBSTEP=     1                                             
   TIME=    1.0000      LOAD CASE=   0                                         
 
    NODE      VOLT  
   11818  0.30619E-03
   11819  0.31853E-03
   11820  0.23746E-04
   11821  0.10934E-04
   11822  0.11263E-04
   11823  0.96574E-05
   11824  0.11289E-04
   11825  0.60515E-04
   11826  0.13191E-04
   11827  0.16140E-04
   11828  0.12211E-04
   11829  0.16096E-03
   11830  0.23579E-04
   11831  0.17227E-04
   11832  0.14680E-03
   11833  0.49177E-03
   11834  0.10807E-04
   11835  0.54350E-04
   11836  0.72567E-04
   11837  0.93725E-04
   11838  0.18666E-02
   11839  0.25184E-02
   11840  0.18522E-02
   11841  0.26331E-02
   11842  0.21411E-03
   11843  0.96413E-04
   11844  0.86148E-04
   11845  0.41470E-03
   11846  0.19600E-03
   11847  0.14338E-03
   11848  0.60145E-04
   11849  0.10791E-03
   11850  0.24401E-03
   11851  0.18714E-03
   11852  0.14620E-03
   11853  0.15369E-03
   11854  0.12293E-02
   11855  0.32682E-04
   11856  0.52796E-04
1

 ***** ANSYS - ENGINEERING ANALYSIS SYSTEM  RELEASE 15.0      *****
 ANSYS Academic Teaching Advanced                  
 00203145          VERSION=LINUX x64     15:15:29  APR 01, 2014 CP=     17.345

                                                                               

 
  ***** POST1 NODAL DEGREE OF FREEDOM LISTING *****                            
 
  LOAD STEP=     1  SUBSTEP=     1                                             
   TIME=    1.0000      LOAD CASE=   0                                         
 
    NODE      VOLT  
   11857  0.20408E-03
   11858  0.82871E-04
   11859  0.84689E-03
   11860  0.28576E-02
   11861  0.25295E-02
   11862  0.12387E-05
   11863  0.12387E-05
   11864  0.19268E-05
   11865  0.11011E-05
   11866  0.13318E-04
   11867  0.40470E-02
   11868  0.37391E-04
   11869  0.39214E-04
   11870  0.41345E-04
   11871  0.12415E-04
   11872  0.55337E-02
   11873  0.15195E-03
   11874  0.45757E-05
   11875  0.27526E-05
   11876  0.85299E-05
   11877  0.98604    
   11878  0.98254    
   11879  0.33436E-04
   11880  0.40333E-04
   11881  0.33251E-04
   11882  0.47936E-02
   11883  0.98227E-05
   11884  0.44991E-04
   11885  0.43168E-04
   11886  0.15438E-04
   11887  0.35740E-04
   11888  0.13793E-04
   11889  0.38447E-04
   11890  0.30001E-04
   11891  0.84152E-04
   11892  0.58380E-02
   11893  0.30349E-02
   11894  0.51995E-02
   11895  0.52689E-02
1

 ***** ANSYS - ENGINEERING ANALYSIS SYSTEM  RELEASE 15.0      *****
 ANSYS Academic Teaching Advanced                  
 00203145          VERSION=LINUX x64     15:15:29  APR 01, 2014 CP=     17.346

                                                                               

 
  ***** POST1 NODAL DEGREE OF FREEDOM LISTING *****                            
 
  LOAD STEP=     1  SUBSTEP=     1                                             
   TIME=    1.0000      LOAD CASE=   0                                         
 
    NODE      VOLT  
   11896  0.51348E-02
   11897  0.55895E-02
   11898  0.95251E-04
   11899  0.12275E-03
   11900  0.60935E-04
   11901  0.59459E-04
   11902  0.59112E-04
   11903  0.59346E-04
   11904  0.62289E-04
   11905  0.99359E-05
   11906  0.17337E-04
   11907  0.10365E-04
   11908  0.10126E-04
   11909  0.88427E-02
   11910  0.40008E-02
   11911  0.41621E-02
   11912  0.12440E-04
   11913  0.94437E-05
   11914  0.24998E-02
   11915  0.10353E-04
   11916  0.12176E-04
   11917  0.98604    
   11918  0.52816E-02
   11919  0.98604    
   11920  0.13691E-04
   11921  0.15514E-04
   11922  0.20983E-04
   11923  0.16719E-02
   11924  0.16482E-02
   11925  0.97207    
   11926  0.98604    
   11927  0.98254    
   11928  0.93495E-05
   11929  0.17967E-02
   11930  0.21027E-02
   11931  0.20908E-02
   11932  0.32733E-02
   11933  0.45942E-02
   11934  0.25933E-02
1

 ***** ANSYS - ENGINEERING ANALYSIS SYSTEM  RELEASE 15.0      *****
 ANSYS Academic Teaching Advanced                  
 00203145          VERSION=LINUX x64     15:15:29  APR 01, 2014 CP=     17.346

                                                                               

 
  ***** POST1 NODAL DEGREE OF FREEDOM LISTING *****                            
 
  LOAD STEP=     1  SUBSTEP=     1                                             
   TIME=    1.0000      LOAD CASE=   0                                         
 
    NODE      VOLT  
   11935  0.19976E-02
   11936  0.18287E-02
   11937  0.18163E-02
   11938  0.55989E-02
   11939  0.55662E-02
   11940  0.47566E-02
   11941  0.56281E-02
   11942  0.28415E-04
   11943  0.55930E-04
   11944  0.54107E-04
   11945  0.57753E-04
   11946  0.21673E-03
   11947  0.16811E-03
   11948  0.11704E-03
   11949  0.52287    
   11950  0.55898    
   11951  0.58658    
   11952  0.48637E-04
   11953  0.50461E-04
   11954  0.52284E-04
   11955  0.47104E-02
   11956  0.24855E-04
   11957  0.36325E-04
   11958  0.17525E-02
   11959  0.92352E-05
   11960  0.26740E-04
   11961  0.27066E-02
   11962  0.27372E-02
   11963  0.56187E-02
   11964  0.52243E-02
   11965  0.26857E-02
   11966  0.10796E-01
   11967  0.56169E-02
   11968  0.71039E-04
   11969  0.69664E-04
   11970  0.62060E-02
   11971  0.21751E-04
   11972  0.12484E-04
   11973  0.64107E-04
1

 ***** ANSYS - ENGINEERING ANALYSIS SYSTEM  RELEASE 15.0      *****
 ANSYS Academic Teaching Advanced                  
 00203145          VERSION=LINUX x64     15:15:29  APR 01, 2014 CP=     17.347

                                                                               

 
  ***** POST1 NODAL DEGREE OF FREEDOM LISTING *****                            
 
  LOAD STEP=     1  SUBSTEP=     1                                             
   TIME=    1.0000      LOAD CASE=   0                                         
 
    NODE      VOLT  
   11974  0.12862E-04
   11975  0.31507E-04
   11976  0.97086E-05
   11977  0.66953E-04
   11978  0.65929E-04
   11979  0.68127E-04
   11980  0.68658E-04
   11981  0.15500E-02
   11982  0.61282E-04
   11983  0.60627E-04
   11984  0.23020E-04
   11985  0.21698E-04
   11986  0.24811E-04
   11987  0.17889E-02
   11988  0.12677E-04
   11989  0.14382E-04
   11990  0.16092E-04
   11991  0.35361E-04
   11992  0.43513E-04
   11993  0.37454E-04
   11994  0.58918E-02
   11995  0.19268E-05
   11996  0.55053E-06
   11997  0.55053E-06
   11998  0.26453E-04
   11999  0.55053E-06
   12000  0.39655E-04
   12001  0.77357E-04
   12002  0.86680E-04
   12003  0.13822E-03
   12004  0.43211E-02
   12005  0.70379E-02
   12006  0.86466    
   12007  0.68816E-06
   12008  0.12387E-05
   12009  0.55053E-06
   12010  0.24629E-04
   12011  0.29914E-02
   12012  0.20733E-02
1

 ***** ANSYS - ENGINEERING ANALYSIS SYSTEM  RELEASE 15.0      *****
 ANSYS Academic Teaching Advanced                  
 00203145          VERSION=LINUX x64     15:15:29  APR 01, 2014 CP=     17.347

                                                                               

 
  ***** POST1 NODAL DEGREE OF FREEDOM LISTING *****                            
 
  LOAD STEP=     1  SUBSTEP=     1                                             
   TIME=    1.0000      LOAD CASE=   0                                         
 
    NODE      VOLT  
   12013  0.28439E-02
   12014  0.21548E-02
   12015  0.56034E-02
   12016  0.56103E-02
   12017  0.11825E-04
   12018  0.22364E-02
   12019  0.32627    
   12020  0.27476    
   12021  0.46814E-04
   12022  0.21921E-02
   12023  0.37413E-02
   12024  0.43511E-02
   12025  0.19795E-04
   12026  0.17557E-04
   12027  0.33155E-04
   12028  0.17838E-02
   12029  0.14669E-02
   12030  0.29358E-03
   12031  0.38369E-03
   12032  0.85978E-02
   12033  0.24252E-02
   12034  0.50354E-02
   12035  0.17848E-02
   12036  0.10589E-02
   12037  0.34365E-04
   12038  0.11691E-04
   12039  0.90687E-05
   12040  0.20599E-04
   12041  0.21383E-03
   12042  0.70964E-04
   12043  0.15022E-03
   12044  0.58804E-04
   12045  0.23880E-02
   12046  0.21917    
   12047  0.15128E-02
   12048  0.41865    
   12049  0.53936    
   12050  0.49957    
   12051  0.45825    
1

 ***** ANSYS - ENGINEERING ANALYSIS SYSTEM  RELEASE 15.0      *****
 ANSYS Academic Teaching Advanced                  
 00203145          VERSION=LINUX x64     15:15:29  APR 01, 2014 CP=     17.347

                                                                               

 
  ***** POST1 NODAL DEGREE OF FREEDOM LISTING *****                            
 
  LOAD STEP=     1  SUBSTEP=     1                                             
   TIME=    1.0000      LOAD CASE=   0                                         
 
    NODE      VOLT  
   12052  0.77140E-05
   12053  0.12532E-04
   12054  0.86055E-05
   12055  0.18819E-04
   12056  0.18602E-02
   12057  0.84122E-05
   12058  0.53339E-03
   12059  0.15321E-03
   12060  0.89251E-04
   12061  0.72404E-04
   12062  0.14189E-03
   12063  0.10229E-03
   12064  0.15083E-03
   12065  0.19230E-02
   12066  0.56696    
   12067  0.61169E-04
   12068  0.69134E-04
   12069  0.22444E-03
   12070  0.19160E-04
   12071  0.22806E-04
   12072  0.76099E-03
   12073  0.74520    
   12074  0.69896    
   12075  0.65271    
   12076  0.13524E-02
   12077  0.29980E-04
   12078  0.23420    
   12079  0.76264E-04
   12080  0.13465E-04
   12081  0.20501E-04
   12082  0.10111E-03
   12083  0.22375E-04
   12084  0.90696E-05
   12085  0.17170E-04
   12086  0.15108E-04
   12087  0.36587    
   12088  0.61321    
   12089  0.62269    
   12090  0.35568E-04
1

 ***** ANSYS - ENGINEERING ANALYSIS SYSTEM  RELEASE 15.0      *****
 ANSYS Academic Teaching Advanced                  
 00203145          VERSION=LINUX x64     15:15:29  APR 01, 2014 CP=     17.348

                                                                               

 
  ***** POST1 NODAL DEGREE OF FREEDOM LISTING *****                            
 
  LOAD STEP=     1  SUBSTEP=     1                                             
   TIME=    1.0000      LOAD CASE=   0                                         
 
    NODE      VOLT  
   12091  0.68816E-06
   12092  0.63988E-05
   12093  0.33745E-04
   12094  0.31922E-04
   12095  0.12419E-03
   12096  0.96858    
   12097  0.78196    

 MAXIMUM ABSOLUTE VALUES
 NODE         28
 VALUE    1.0000    
