
 PRINT DOF  NODAL SOLUTION PER NODE
1

 ***** ANSYS - ENGINEERING ANALYSIS SYSTEM  RELEASE 15.0      *****
 ANSYS Academic Teaching Advanced                  
 00203145          VERSION=LINUX x64     15:15:32  APR 01, 2014 CP=     20.995

                                                                               

 
  ***** POST1 NODAL DEGREE OF FREEDOM LISTING *****                            
 
  LOAD STEP=     1  SUBSTEP=     1                                             
   TIME=    1.0000      LOAD CASE=   0                                         
 
    NODE      VOLT  
       1   0.0000    
       2   0.0000    
       3   0.0000    
       4  0.44724E-03
       5   0.0000    
       6   0.0000    
       7   0.0000    
       8   0.0000    
       9   0.0000    
      10   0.0000    
      11   0.0000    
      12   0.0000    
      13   0.0000    
      14  0.45041E-03
      15   0.0000    
      16   0.0000    
      17   0.0000    
      18   0.0000    
      19   0.0000    
      20   0.0000    
      21   1.0000    
      22   0.0000    
      23   1.0000    
      24   0.0000    
      25   0.0000    
      26   1.0000    
      27   1.0000    
      28   0.0000    
      29   0.0000    
      30   0.0000    
      31   0.0000    
      32   0.0000    
      33  0.44987E-03
      34  0.45420E-03
      35   0.0000    
      36   0.0000    
      37   0.0000    
      38   0.0000    
      39   0.0000    
1

 ***** ANSYS - ENGINEERING ANALYSIS SYSTEM  RELEASE 15.0      *****
 ANSYS Academic Teaching Advanced                  
 00203145          VERSION=LINUX x64     15:15:32  APR 01, 2014 CP=     20.997

                                                                               

 
  ***** POST1 NODAL DEGREE OF FREEDOM LISTING *****                            
 
  LOAD STEP=     1  SUBSTEP=     1                                             
   TIME=    1.0000      LOAD CASE=   0                                         
 
    NODE      VOLT  
      40   0.0000    
      41   0.0000    
      42   0.0000    
      43   0.0000    
      44   0.0000    
      45   0.0000    
      46   0.0000    
      47   0.0000    
      48   0.0000    
      49   0.0000    
      50   0.0000    
      51   0.0000    
      52   0.0000    
      53   0.0000    
      54   0.0000    
      55   0.0000    
      56   0.0000    
      57   0.0000    
      58   0.0000    
      59   0.0000    
      60  0.22867E-03
      61  0.36317E-03
      62  0.43643E-03
      63  0.46828E-03
      64  0.47955E-03
      65  0.47107E-03
      66  0.45476E-03
      67  0.34448E-03
      68  0.26269E-03
      69  0.20062E-03
      70  0.14662E-03
      71  0.11035E-03
      72  0.74383E-04
      73  0.40659E-04
      74   0.0000    
      75   0.0000    
      76   0.0000    
      77   0.0000    
      78   0.0000    
1

 ***** ANSYS - ENGINEERING ANALYSIS SYSTEM  RELEASE 15.0      *****
 ANSYS Academic Teaching Advanced                  
 00203145          VERSION=LINUX x64     15:15:32  APR 01, 2014 CP=     20.999

                                                                               

 
  ***** POST1 NODAL DEGREE OF FREEDOM LISTING *****                            
 
  LOAD STEP=     1  SUBSTEP=     1                                             
   TIME=    1.0000      LOAD CASE=   0                                         
 
    NODE      VOLT  
      79   0.0000    
      80   0.0000    
      81   0.0000    
      82   0.0000    
      83   0.0000    
      84   0.0000    
      85   0.0000    
      86   0.0000    
      87   0.0000    
      88   0.0000    
      89   0.0000    
      90   0.0000    
      91   0.0000    
      92   0.0000    
      93   0.0000    
      94   0.0000    
      95   0.0000    
      96   0.0000    
      97  0.18211E-04
      98  0.35052E-04
      99  0.54770E-04
     100  0.67841E-04
     101  0.73490E-04
     102  0.60138E-04
     103  0.46260E-04
     104  0.28670E-04
     105  0.14563E-04
     106  0.18341E-04
     107  0.35321E-04
     108  0.54757E-04
     109  0.67513E-04
     110  0.73448E-04
     111  0.60249E-04
     112  0.46274E-04
     113  0.28731E-04
     114  0.14626E-04
     115   0.0000    
     116   0.0000    
     117   0.0000    
1

 ***** ANSYS - ENGINEERING ANALYSIS SYSTEM  RELEASE 15.0      *****
 ANSYS Academic Teaching Advanced                  
 00203145          VERSION=LINUX x64     15:15:32  APR 01, 2014 CP=     21.000

                                                                               

 
  ***** POST1 NODAL DEGREE OF FREEDOM LISTING *****                            
 
  LOAD STEP=     1  SUBSTEP=     1                                             
   TIME=    1.0000      LOAD CASE=   0                                         
 
    NODE      VOLT  
     118   0.0000    
     119   0.0000    
     120   0.0000    
     121   0.0000    
     122   0.0000    
     123   0.0000    
     124   0.0000    
     125   0.0000    
     126   0.0000    
     127   0.0000    
     128   0.0000    
     129   0.0000    
     130   0.0000    
     131   0.0000    
     132   0.0000    
     133  0.34441E-03
     134  0.26049E-03
     135  0.19957E-03
     136  0.14646E-03
     137  0.11024E-03
     138  0.74468E-04
     139  0.40878E-04
     140   0.0000    
     141   0.0000    
     142   0.0000    
     143   0.0000    
     144   0.0000    
     145   0.0000    
     146   0.0000    
     147   0.0000    
     148   0.0000    
     149   0.0000    
     150   0.0000    
     151   0.0000    
     152   0.0000    
     153   0.0000    
     154   0.0000    
     155   0.0000    
     156   0.0000    
1

 ***** ANSYS - ENGINEERING ANALYSIS SYSTEM  RELEASE 15.0      *****
 ANSYS Academic Teaching Advanced                  
 00203145          VERSION=LINUX x64     15:15:32  APR 01, 2014 CP=     21.002

                                                                               

 
  ***** POST1 NODAL DEGREE OF FREEDOM LISTING *****                            
 
  LOAD STEP=     1  SUBSTEP=     1                                             
   TIME=    1.0000      LOAD CASE=   0                                         
 
    NODE      VOLT  
     157   0.0000    
     158  0.20480E-03
     159  0.35505E-03
     160  0.43470E-03
     161  0.47105E-03
     162  0.48290E-03
     163  0.47556E-03
     164  0.45887E-03
     165   0.0000    
     166   0.0000    
     167   0.0000    
     168   0.0000    
     169   0.0000    
     170   0.0000    
     171   0.0000    
     172   0.0000    
     173   0.0000    
     174   0.0000    
     175   0.0000    
     176   0.0000    
     177   0.0000    
     178   0.0000    
     179   0.0000    
     180   0.0000    
     181   0.0000    
     182   0.0000    
     183   0.0000    
     184   0.0000    
     185   0.0000    
     186   0.0000    
     187   0.0000    
     188   0.0000    
     189   0.0000    
     190   0.0000    
     191   0.0000    
     192   0.0000    
     193   0.0000    
     194   0.0000    
     195   0.0000    
1

 ***** ANSYS - ENGINEERING ANALYSIS SYSTEM  RELEASE 15.0      *****
 ANSYS Academic Teaching Advanced                  
 00203145          VERSION=LINUX x64     15:15:32  APR 01, 2014 CP=     21.003

                                                                               

 
  ***** POST1 NODAL DEGREE OF FREEDOM LISTING *****                            
 
  LOAD STEP=     1  SUBSTEP=     1                                             
   TIME=    1.0000      LOAD CASE=   0                                         
 
    NODE      VOLT  
     196   0.0000    
     197   0.0000    
     198   0.0000    
     199   0.0000    
     200   0.0000    
     201   0.0000    
     202   0.0000    
     203   0.0000    
     204   0.0000    
     205   0.0000    
     206   0.0000    
     207   0.0000    
     208   0.0000    
     209   0.0000    
     210   0.0000    
     211   0.0000    
     212   0.0000    
     213   0.0000    
     214   0.0000    
     215   0.0000    
     216   0.0000    
     217   0.0000    
     218   0.0000    
     219   0.0000    
     220   0.0000    
     221   0.0000    
     222   0.0000    
     223   0.0000    
     224   0.0000    
     225   0.0000    
     226   0.0000    
     227   0.0000    
     228   0.0000    
     229   0.0000    
     230   0.0000    
     231   0.0000    
     232   0.0000    
     233   0.0000    
     234  0.18938E-02
1

 ***** ANSYS - ENGINEERING ANALYSIS SYSTEM  RELEASE 15.0      *****
 ANSYS Academic Teaching Advanced                  
 00203145          VERSION=LINUX x64     15:15:32  APR 01, 2014 CP=     21.005

                                                                               

 
  ***** POST1 NODAL DEGREE OF FREEDOM LISTING *****                            
 
  LOAD STEP=     1  SUBSTEP=     1                                             
   TIME=    1.0000      LOAD CASE=   0                                         
 
    NODE      VOLT  
     235  0.37816E-02
     236  0.63768E-02
     237  0.89468E-02
     238  0.12506E-01
     239  0.16019E-01
     240  0.20863E-01
     241  0.25643E-01
     242  0.32314E-01
     243  0.38961E-01
     244  0.48189E-01
     245  0.57404E-01
     246  0.70213E-01
     247  0.83021E-01
     248  0.10095    
     249  0.11888    
     250  0.14152    
     251  0.16416    
     252  0.18730    
     253  0.21044    
     254  0.23359    
     255  0.25674    
     256  0.28677    
     257  0.31681    
     258  0.33996    
     259  0.36311    
     260  0.38626    
     261  0.40942    
     262  0.43257    
     263  0.45572    
     264  0.47887    
     265  0.50202    
     266  0.52517    
     267  0.54832    
     268  0.57147    
     269  0.59463    
     270  0.61778    
     271  0.64093    
     272  0.66408    
     273  0.68723    
1

 ***** ANSYS - ENGINEERING ANALYSIS SYSTEM  RELEASE 15.0      *****
 ANSYS Academic Teaching Advanced                  
 00203145          VERSION=LINUX x64     15:15:32  APR 01, 2014 CP=     21.007

                                                                               

 
  ***** POST1 NODAL DEGREE OF FREEDOM LISTING *****                            
 
  LOAD STEP=     1  SUBSTEP=     1                                             
   TIME=    1.0000      LOAD CASE=   0                                         
 
    NODE      VOLT  
     274  0.71038    
     275  0.73353    
     276  0.75668    
     277  0.77983    
     278  0.80299    
     279  0.82614    
     280  0.84929    
     281  0.87244    
     282  0.89559    
     283  0.91874    
     284  0.94189    
     285  0.96504    
     286  0.98252    
     287   0.0000    
     288   0.0000    
     289   0.0000    
     290   0.0000    
     291   0.0000    
     292   0.0000    
     293   0.0000    
     294   0.0000    
     295   0.0000    
     296   0.0000    
     297   0.0000    
     298   0.0000    
     299   0.0000    
     300   0.0000    
     301   0.0000    
     302   0.0000    
     303   0.0000    
     304   0.0000    
     305   0.0000    
     306   0.0000    
     307   0.0000    
     308   0.0000    
     309   0.0000    
     310  0.18934E-02
     311  0.37806E-02
     312  0.63757E-02
1

 ***** ANSYS - ENGINEERING ANALYSIS SYSTEM  RELEASE 15.0      *****
 ANSYS Academic Teaching Advanced                  
 00203145          VERSION=LINUX x64     15:15:32  APR 01, 2014 CP=     21.009

                                                                               

 
  ***** POST1 NODAL DEGREE OF FREEDOM LISTING *****                            
 
  LOAD STEP=     1  SUBSTEP=     1                                             
   TIME=    1.0000      LOAD CASE=   0                                         
 
    NODE      VOLT  
     313  0.89493E-02
     314  0.12511E-01
     315  0.16027E-01
     316  0.20874E-01
     317  0.25670E-01
     318  0.32332E-01
     319  0.38966E-01
     320  0.48189E-01
     321  0.57402E-01
     322  0.70213E-01
     323  0.83021E-01
     324  0.10054    
     325  0.11807    
     326  0.13973    
     327  0.16139    
     328  0.18447    
     329  0.20756    
     330  0.23071    
     331  0.25386    
     332  0.28534    
     333  0.31681    
     334  0.33996    
     335  0.36311    
     336  0.38626    
     337  0.40942    
     338  0.43257    
     339  0.45572    
     340  0.47887    
     341  0.50202    
     342  0.52517    
     343  0.54832    
     344  0.57147    
     345  0.59463    
     346  0.61778    
     347  0.64093    
     348  0.66408    
     349  0.68723    
     350  0.71038    
     351  0.73353    
1

 ***** ANSYS - ENGINEERING ANALYSIS SYSTEM  RELEASE 15.0      *****
 ANSYS Academic Teaching Advanced                  
 00203145          VERSION=LINUX x64     15:15:32  APR 01, 2014 CP=     21.010

                                                                               

 
  ***** POST1 NODAL DEGREE OF FREEDOM LISTING *****                            
 
  LOAD STEP=     1  SUBSTEP=     1                                             
   TIME=    1.0000      LOAD CASE=   0                                         
 
    NODE      VOLT  
     352  0.75668    
     353  0.77983    
     354  0.80299    
     355  0.82614    
     356  0.84929    
     357  0.87244    
     358  0.89559    
     359  0.91874    
     360  0.94189    
     361  0.96504    
     362  0.98252    
     363   0.0000    
     364   0.0000    
     365   0.0000    
     366   0.0000    
     367   0.0000    
     368   0.0000    
     369   0.0000    
     370   0.0000    
     371   0.0000    
     372   0.0000    
     373   0.0000    
     374   0.0000    
     375   0.0000    
     376   0.0000    
     377   0.0000    
     378   0.0000    
     379   0.0000    
     380   0.0000    
     381   1.0000    
     382   1.0000    
     383   1.0000    
     384   1.0000    
     385   1.0000    
     386   1.0000    
     387   0.0000    
     388   0.0000    
     389   0.0000    
     390   0.0000    
1

 ***** ANSYS - ENGINEERING ANALYSIS SYSTEM  RELEASE 15.0      *****
 ANSYS Academic Teaching Advanced                  
 00203145          VERSION=LINUX x64     15:15:32  APR 01, 2014 CP=     21.012

                                                                               

 
  ***** POST1 NODAL DEGREE OF FREEDOM LISTING *****                            
 
  LOAD STEP=     1  SUBSTEP=     1                                             
   TIME=    1.0000      LOAD CASE=   0                                         
 
    NODE      VOLT  
     391   0.0000    
     392   0.0000    
     393  0.13763E-05
     394  0.27526E-05
     395  0.49497E-05
     396  0.71467E-05
     397  0.89698E-05
     398  0.10793E-04
     399  0.12616E-04
     400  0.14439E-04
     401  0.16262E-04
     402  0.18085E-04
     403  0.19908E-04
     404  0.21731E-04
     405  0.23550E-04
     406  0.25370E-04
     407  0.27138E-04
     408  0.28907E-04
     409  0.30458E-04
     410  0.32012E-04
     411  0.33223E-04
     412  0.34478E-04
     413  0.36060E-04
     414  0.38182E-04
     415  0.42200E-04
     416  0.49337E-04
     417  0.60930E-04
     418  0.82775E-04
     419  0.11922E-03
     420  0.19316E-03
     421  0.30928E-03
     422  0.52131E-03
     423  0.85882E-03
     424  0.14311E-02
     425  0.25635E-02
     426  0.43674E-02
     427  0.73856E-02
     428  0.11464E-01
     429  0.17694E-01
1

 ***** ANSYS - ENGINEERING ANALYSIS SYSTEM  RELEASE 15.0      *****
 ANSYS Academic Teaching Advanced                  
 00203145          VERSION=LINUX x64     15:15:32  APR 01, 2014 CP=     21.013

                                                                               

 
  ***** POST1 NODAL DEGREE OF FREEDOM LISTING *****                            
 
  LOAD STEP=     1  SUBSTEP=     1                                             
   TIME=    1.0000      LOAD CASE=   0                                         
 
    NODE      VOLT  
     430  0.24601E-01
     431  0.35586E-01
     432  0.46739E-01
     433  0.66010E-01
     434  0.85300E-01
     435  0.10845    
     436  0.13160    
     437  0.15475    
     438  0.17790    
     439  0.20106    
     440  0.22421    
     441  0.24736    
     442  0.27051    
     443  0.29366    
     444  0.31681    
     445  0.33996    
     446  0.36311    
     447  0.38626    
     448  0.40942    
     449  0.43257    
     450  0.45572    
     451  0.47887    
     452  0.50202    
     453  0.52517    
     454  0.54832    
     455  0.57147    
     456  0.59463    
     457  0.61778    
     458  0.64093    
     459  0.66408    
     460  0.68723    
     461  0.71038    
     462  0.73353    
     463  0.75668    
     464  0.77983    
     465  0.80299    
     466  0.82614    
     467  0.84929    
     468  0.87244    
1

 ***** ANSYS - ENGINEERING ANALYSIS SYSTEM  RELEASE 15.0      *****
 ANSYS Academic Teaching Advanced                  
 00203145          VERSION=LINUX x64     15:15:32  APR 01, 2014 CP=     21.015

                                                                               

 
  ***** POST1 NODAL DEGREE OF FREEDOM LISTING *****                            
 
  LOAD STEP=     1  SUBSTEP=     1                                             
   TIME=    1.0000      LOAD CASE=   0                                         
 
    NODE      VOLT  
     469  0.89559    
     470  0.91874    
     471  0.94189    
     472  0.96504    
     473  0.98252    
     474  0.98252    
     475  0.96504    
     476  0.93798    
     477  0.91092    
     478  0.88777    
     479  0.86462    
     480  0.84146    
     481  0.81831    
     482  0.79516    
     483  0.77201    
     484  0.74886    
     485  0.72571    
     486  0.70256    
     487  0.67941    
     488  0.65626    
     489  0.63310    
     490  0.60995    
     491  0.58680    
     492  0.56365    
     493  0.54050    
     494  0.51735    
     495  0.49420    
     496  0.47105    
     497  0.44789    
     498  0.42474    
     499  0.40159    
     500  0.37844    
     501  0.35529    
     502  0.33214    
     503  0.30899    
     504  0.28584    
     505  0.26269    
     506  0.23953    
     507  0.21638    
1

 ***** ANSYS - ENGINEERING ANALYSIS SYSTEM  RELEASE 15.0      *****
 ANSYS Academic Teaching Advanced                  
 00203145          VERSION=LINUX x64     15:15:32  APR 01, 2014 CP=     21.017

                                                                               

 
  ***** POST1 NODAL DEGREE OF FREEDOM LISTING *****                            
 
  LOAD STEP=     1  SUBSTEP=     1                                             
   TIME=    1.0000      LOAD CASE=   0                                         
 
    NODE      VOLT  
     508  0.19325    
     509  0.17012    
     510  0.14754    
     511  0.12497    
     512  0.10633    
     513  0.87704E-01
     514  0.73937E-01
     515  0.60175E-01
     516  0.50107E-01
     517  0.40066E-01
     518  0.32608E-01
     519  0.25257E-01
     520  0.19582E-01
     521  0.14240E-01
     522  0.99717E-02
     523  0.64933E-02
     524  0.41343E-02
     525  0.24973E-02
     526  0.14928E-02
     527  0.88243E-03
     528  0.48859E-03
     529  0.26916E-03
     530  0.15531E-03
     531  0.96932E-04
     532  0.61767E-04
     533  0.48510E-04
     534  0.39639E-04
     535  0.35560E-04
     536  0.33640E-04
     537  0.31924E-04
     538  0.30100E-04
     539  0.28276E-04
     540  0.26453E-04
     541  0.24630E-04
     542  0.22806E-04
     543  0.20983E-04
     544  0.19160E-04
     545  0.17337E-04
     546  0.15514E-04
1

 ***** ANSYS - ENGINEERING ANALYSIS SYSTEM  RELEASE 15.0      *****
 ANSYS Academic Teaching Advanced                  
 00203145          VERSION=LINUX x64     15:15:32  APR 01, 2014 CP=     21.019

                                                                               

 
  ***** POST1 NODAL DEGREE OF FREEDOM LISTING *****                            
 
  LOAD STEP=     1  SUBSTEP=     1                                             
   TIME=    1.0000      LOAD CASE=   0                                         
 
    NODE      VOLT  
     547  0.13691E-04
     548  0.11868E-04
     549  0.10045E-04
     550  0.82218E-05
     551  0.63988E-05
     552  0.45757E-05
     553  0.27526E-05
     554  0.13763E-05
     555  0.42135E-05
     556  0.82555E-05
     557  0.13507E-04
     558  0.18173E-04
     559  0.23325E-04
     560  0.26948E-04
     561  0.30239E-04
     562  0.31865E-04
     563  0.34039E-04
     564  0.35199E-04
     565  0.35101E-04
     566  0.34759E-04
     567  0.33872E-04
     568  0.32908E-04
     569  0.31475E-04
     570  0.30061E-04
     571  0.28256E-04
     572  0.26451E-04
     573  0.24628E-04
     574  0.22805E-04
     575  0.21438E-04
     576  0.20071E-04
     577  0.18704E-04
     578  0.17337E-04
     579  0.15514E-04
     580  0.13691E-04
     581  0.11868E-04
     582  0.10045E-04
     583  0.82218E-05
     584  0.63988E-05
     585  0.45757E-05
1

 ***** ANSYS - ENGINEERING ANALYSIS SYSTEM  RELEASE 15.0      *****
 ANSYS Academic Teaching Advanced                  
 00203145          VERSION=LINUX x64     15:15:32  APR 01, 2014 CP=     21.021

                                                                               

 
  ***** POST1 NODAL DEGREE OF FREEDOM LISTING *****                            
 
  LOAD STEP=     1  SUBSTEP=     1                                             
   TIME=    1.0000      LOAD CASE=   0                                         
 
    NODE      VOLT  
     586  0.27526E-05
     587  0.13763E-05
     588  0.42298E-05
     589  0.82880E-05
     590  0.13548E-04
     591  0.18169E-04
     592  0.23262E-04
     593  0.26673E-04
     594  0.30154E-04
     595  0.32097E-04
     596  0.34026E-04
     597  0.35246E-04
     598  0.35371E-04
     599  0.34984E-04
     600  0.33942E-04
     601  0.32895E-04
     602  0.31494E-04
     603  0.30094E-04
     604  0.28381E-04
     605  0.26669E-04
     606  0.24851E-04
     607  0.23032E-04
     608  0.21209E-04
     609  0.19386E-04
     610  0.17962E-04
     611  0.16538E-04
     612  0.15115E-04
     613  0.13691E-04
     614  0.11868E-04
     615  0.10045E-04
     616  0.82218E-05
     617  0.63988E-05
     618  0.45757E-05
     619  0.27526E-05
     620  0.13763E-05
     621   0.0000    
     622   0.0000    
     623   0.0000    
     624   0.0000    
1

 ***** ANSYS - ENGINEERING ANALYSIS SYSTEM  RELEASE 15.0      *****
 ANSYS Academic Teaching Advanced                  
 00203145          VERSION=LINUX x64     15:15:32  APR 01, 2014 CP=     21.023

                                                                               

 
  ***** POST1 NODAL DEGREE OF FREEDOM LISTING *****                            
 
  LOAD STEP=     1  SUBSTEP=     1                                             
   TIME=    1.0000      LOAD CASE=   0                                         
 
    NODE      VOLT  
     625   0.0000    
     626   0.0000    
     627   0.0000    
     628   0.0000    
     629   0.0000    
     630   0.0000    
     631   0.0000    
     632   0.0000    
     633   0.0000    
     634   0.0000    
     635   0.0000    
     636   0.0000    
     637   0.0000    
     638   0.0000    
     639   0.0000    
     640  0.45128E-03
     641  0.45195E-03
     642  0.45221E-03
     643  0.45396E-03
     644  0.45178E-03
     645  0.44893E-03
     646  0.45145E-03
     647  0.45319E-03
     648  0.45229E-03
     649  0.45146E-03
     650  0.45118E-03
     651  0.23502E-03
     652  0.36834E-03
     653  0.43773E-03
     654  0.46812E-03
     655  0.48157E-03
     656  0.47693E-03
     657  0.45734E-03
     658   0.0000    
     659   0.0000    
     660   0.0000    
     661   0.0000    
     662   0.0000    
     663   0.0000    
1

 ***** ANSYS - ENGINEERING ANALYSIS SYSTEM  RELEASE 15.0      *****
 ANSYS Academic Teaching Advanced                  
 00203145          VERSION=LINUX x64     15:15:32  APR 01, 2014 CP=     21.024

                                                                               

 
  ***** POST1 NODAL DEGREE OF FREEDOM LISTING *****                            
 
  LOAD STEP=     1  SUBSTEP=     1                                             
   TIME=    1.0000      LOAD CASE=   0                                         
 
    NODE      VOLT  
     664   0.0000    
     665   0.0000    
     666   0.0000    
     667   0.0000    
     668   0.0000    
     669   0.0000    
     670   0.0000    
     671   0.0000    
     672   0.0000    
     673   0.0000    
     674   0.0000    
     675   0.0000    
     676   0.0000    
     677   0.0000    
     678   0.0000    
     679   0.0000    
     680   0.0000    
     681   0.0000    
     682   0.0000    
     683   0.0000    
     684   0.0000    
     685   0.0000    
     686   0.0000    
     687   0.0000    
     688   0.0000    
     689   0.0000    
     690   0.0000    
     691   0.0000    
     692   0.0000    
     693   0.0000    
     694   0.0000    
     695   0.0000    
     696  0.45216E-03
     697  0.45090E-03
     698  0.45135E-03
     699  0.45053E-03
     700  0.45108E-03
     701  0.45065E-03
     702  0.45112E-03
1

 ***** ANSYS - ENGINEERING ANALYSIS SYSTEM  RELEASE 15.0      *****
 ANSYS Academic Teaching Advanced                  
 00203145          VERSION=LINUX x64     15:15:32  APR 01, 2014 CP=     21.026

                                                                               

 
  ***** POST1 NODAL DEGREE OF FREEDOM LISTING *****                            
 
  LOAD STEP=     1  SUBSTEP=     1                                             
   TIME=    1.0000      LOAD CASE=   0                                         
 
    NODE      VOLT  
     703  0.45027E-03
     704  0.45237E-03
     705  0.45454E-03
     706  0.45450E-03
     707  0.23358E-03
     708  0.36799E-03
     709  0.43796E-03
     710  0.46649E-03
     711  0.48222E-03
     712  0.47514E-03
     713  0.45807E-03
     714   0.0000    
     715   0.0000    
     716   0.0000    
     717   0.0000    
     718   0.0000    
     719   0.0000    
     720   0.0000    
     721   0.0000    
     722   0.0000    
     723   0.0000    
     724   0.0000    
     725   0.0000    
     726   0.0000    
     727   0.0000    
     728   0.0000    
     729   0.0000    
     730   0.0000    
     731   0.0000    
     732   0.0000    
     733   0.0000    
     734   0.0000    
     735   0.0000    
     736   0.0000    
     737   0.0000    
     738   0.0000    
     739   0.0000    
     740   0.0000    
     741   0.0000    
1

 ***** ANSYS - ENGINEERING ANALYSIS SYSTEM  RELEASE 15.0      *****
 ANSYS Academic Teaching Advanced                  
 00203145          VERSION=LINUX x64     15:15:32  APR 01, 2014 CP=     21.027

                                                                               

 
  ***** POST1 NODAL DEGREE OF FREEDOM LISTING *****                            
 
  LOAD STEP=     1  SUBSTEP=     1                                             
   TIME=    1.0000      LOAD CASE=   0                                         
 
    NODE      VOLT  
     742   0.0000    
     743   0.0000    
     744   0.0000    
     745   0.0000    
     746   0.0000    
     747   0.0000    
     748   0.0000    
     749   0.0000    
     750   0.0000    
     751   0.0000    
     752   0.0000    
     753   0.0000    
     754   0.0000    
     755   0.0000    
     756   0.0000    
     757   0.0000    
     758   0.0000    
     759   0.0000    
     760   0.0000    
     761   0.0000    
     762   0.0000    
     763   0.0000    
     764   0.0000    
     765   0.0000    
     766   0.0000    
     767   0.0000    
     768   0.0000    
     769   0.0000    
     770   0.0000    
     771   0.0000    
     772   0.0000    
     773   0.0000    
     774   0.0000    
     775   0.0000    
     776   0.0000    
     777   0.0000    
     778   0.0000    
     779   0.0000    
     780   0.0000    
1

 ***** ANSYS - ENGINEERING ANALYSIS SYSTEM  RELEASE 15.0      *****
 ANSYS Academic Teaching Advanced                  
 00203145          VERSION=LINUX x64     15:15:32  APR 01, 2014 CP=     21.029

                                                                               

 
  ***** POST1 NODAL DEGREE OF FREEDOM LISTING *****                            
 
  LOAD STEP=     1  SUBSTEP=     1                                             
   TIME=    1.0000      LOAD CASE=   0                                         
 
    NODE      VOLT  
     781   0.0000    
     782   0.0000    
     783   0.0000    
     784   0.0000    
     785   0.0000    
     786   0.0000    
     787   0.0000    
     788   0.0000    
     789   0.0000    
     790   0.0000    
     791   0.0000    
     792   0.0000    
     793   0.0000    
     794   0.0000    
     795   0.0000    
     796   0.0000    
     797   0.0000    
     798   0.0000    
     799   0.0000    
     800   0.0000    
     801   0.0000    
     802   0.0000    
     803   0.0000    
     804   0.0000    
     805   0.0000    
     806   0.0000    
     807   0.0000    
     808   0.0000    
     809   0.0000    
     810   0.0000    
     811   0.0000    
     812   0.0000    
     813   0.0000    
     814   0.0000    
     815   0.0000    
     816   0.0000    
     817   0.0000    
     818   0.0000    
     819   0.0000    
1

 ***** ANSYS - ENGINEERING ANALYSIS SYSTEM  RELEASE 15.0      *****
 ANSYS Academic Teaching Advanced                  
 00203145          VERSION=LINUX x64     15:15:32  APR 01, 2014 CP=     21.031

                                                                               

 
  ***** POST1 NODAL DEGREE OF FREEDOM LISTING *****                            
 
  LOAD STEP=     1  SUBSTEP=     1                                             
   TIME=    1.0000      LOAD CASE=   0                                         
 
    NODE      VOLT  
     820   0.0000    
     821   0.0000    
     822   0.0000    
     823   0.0000    
     824   0.0000    
     825   0.0000    
     826   0.0000    
     827   0.0000    
     828   0.0000    
     829   0.0000    
     830   0.0000    
     831   0.0000    
     832   0.0000    
     833   0.0000    
     834   0.0000    
     835  0.34185E-03
     836  0.25765E-03
     837  0.19854E-03
     838  0.14680E-03
     839  0.11071E-03
     840  0.74611E-04
     841  0.40464E-04
     842   0.0000    
     843   0.0000    
     844   0.0000    
     845   0.0000    
     846   0.0000    
     847   0.0000    
     848   0.0000    
     849   0.0000    
     850   0.0000    
     851   0.0000    
     852   0.0000    
     853   0.0000    
     854   0.0000    
     855   0.0000    
     856   0.0000    
     857   0.0000    
     858   0.0000    
1

 ***** ANSYS - ENGINEERING ANALYSIS SYSTEM  RELEASE 15.0      *****
 ANSYS Academic Teaching Advanced                  
 00203145          VERSION=LINUX x64     15:15:32  APR 01, 2014 CP=     21.033

                                                                               

 
  ***** POST1 NODAL DEGREE OF FREEDOM LISTING *****                            
 
  LOAD STEP=     1  SUBSTEP=     1                                             
   TIME=    1.0000      LOAD CASE=   0                                         
 
    NODE      VOLT  
     859   0.0000    
     860   0.0000    
     861   0.0000    
     862   0.0000    
     863   0.0000    
     864   0.0000    
     865   0.0000    
     866   0.0000    
     867   0.0000    
     868   0.0000    
     869   0.0000    
     870   0.0000    
     871   0.0000    
     872   0.0000    
     873   0.0000    
     874   0.0000    
     875   0.0000    
     876   0.0000    
     877   0.0000    
     878   0.0000    
     879   0.0000    
     880  0.34224E-03
     881  0.25778E-03
     882  0.19855E-03
     883  0.14675E-03
     884  0.11062E-03
     885  0.74426E-04
     886  0.40274E-04
     887  0.20595E-03
     888  0.23988E-03
     889  0.20963E-03
     890  0.22643E-03
     891  0.44709E-04
     892  0.26010E-03
     893  0.29335E-03
     894  0.86316E-04
     895  0.66261E-04
     896  0.31007E-04
     897  0.66573E-04
1

 ***** ANSYS - ENGINEERING ANALYSIS SYSTEM  RELEASE 15.0      *****
 ANSYS Academic Teaching Advanced                  
 00203145          VERSION=LINUX x64     15:15:32  APR 01, 2014 CP=     21.034

                                                                               

 
  ***** POST1 NODAL DEGREE OF FREEDOM LISTING *****                            
 
  LOAD STEP=     1  SUBSTEP=     1                                             
   TIME=    1.0000      LOAD CASE=   0                                         
 
    NODE      VOLT  
     898  0.31842E-04
     899  0.29566E-03
     900  0.28946E-03
     901  0.38133E-03
     902  0.38089E-03
     903  0.24220E-03
     904  0.37554E-03
     905  0.28480E-03
     906  0.37677E-03
     907  0.19817E-03
     908  0.16886E-03
     909  0.17361E-03
     910  0.15784E-03
     911  0.15479E-03
     912  0.15725E-03
     913  0.17787E-03
     914  0.17374E-03
     915  0.21255E-03
     916  0.22088E-03
     917  0.22565E-03
     918  0.22311E-03
     919  0.21315E-03
     920  0.21449E-03
     921  0.12740E-03
     922  0.12699E-03
     923  0.13400E-03
     924  0.13386E-03
     925  0.12917E-03
     926  0.13161E-03
     927  0.11576E-03
     928  0.11730E-03
     929  0.12420E-03
     930  0.12475E-03
     931  0.11712E-03
     932  0.13793E-03
     933  0.15874E-03
     934  0.13200E-03
     935  0.11072E-03
     936  0.93805E-04
1

 ***** ANSYS - ENGINEERING ANALYSIS SYSTEM  RELEASE 15.0      *****
 ANSYS Academic Teaching Advanced                  
 00203145          VERSION=LINUX x64     15:15:32  APR 01, 2014 CP=     21.036

                                                                               

 
  ***** POST1 NODAL DEGREE OF FREEDOM LISTING *****                            
 
  LOAD STEP=     1  SUBSTEP=     1                                             
   TIME=    1.0000      LOAD CASE=   0                                         
 
    NODE      VOLT  
     937  0.28008E-03
     938  0.27453E-03
     939  0.26875E-03
     940  0.88104E-04
     941  0.94779E-04
     942  0.95345E-04
     943  0.93042E-04
     944  0.89167E-04
     945  0.87157E-04
     946  0.80025E-04
     947  0.13089E-03
     948  0.23420E-03
     949  0.17691E-03
     950  0.13050E-03
     951  0.94619E-04
     952  0.35113E-03
     953  0.35217E-03
     954  0.35967E-03
     955  0.35875E-03
     956  0.34486E-03
     957  0.34482E-03
     958  0.35270E-03
     959  0.35007E-03
     960  0.45610E-04
     961  0.44756E-04
     962  0.51699E-04
     963  0.53490E-04
     964  0.53967E-04
     965  0.51553E-04
     966  0.53654E-04
     967  0.53025E-04
     968  0.49082E-04
     969  0.49954E-04
     970  0.49251E-04
     971  0.48065E-04
     972  0.47938E-04
     973  0.47114E-04
     974  0.40761E-04
     975  0.40483E-04
1

 ***** ANSYS - ENGINEERING ANALYSIS SYSTEM  RELEASE 15.0      *****
 ANSYS Academic Teaching Advanced                  
 00203145          VERSION=LINUX x64     15:15:32  APR 01, 2014 CP=     21.037

                                                                               

 
  ***** POST1 NODAL DEGREE OF FREEDOM LISTING *****                            
 
  LOAD STEP=     1  SUBSTEP=     1                                             
   TIME=    1.0000      LOAD CASE=   0                                         
 
    NODE      VOLT  
     976  0.16638E-03
     977  0.22081E-03
     978  0.77948E-04
     979  0.11389E-03
     980  0.80223E-04
     981  0.18443E-03
     982  0.73249E-04
     983  0.85269E-04
     984  0.86883E-04
     985  0.90268E-04
     986  0.94333E-04
     987  0.94211E-04
     988  0.93447E-04
     989  0.27099E-03
     990  0.26038E-03
     991  0.28380E-03
     992  0.27163E-03
     993  0.11412E-03
     994  0.20809E-03
     995  0.14890E-03
     996  0.16371E-03
     997  0.14467E-03
     998  0.17002E-03
     999  0.17491E-03
    1000  0.16121E-03
    1001  0.31169E-03
    1002  0.31930E-03
    1003  0.57721E-04
    1004  0.12769E-03
    1005  0.61283E-04
    1006  0.36441E-03
    1007  0.14017E-03
    1008  0.16784E-04
    1009  0.21733E-04
    1010  0.36361E-03
    1011  0.10248E-03
    1012  0.77868E-04
    1013  0.18062E-03
    1014  0.89264E-04
1

 ***** ANSYS - ENGINEERING ANALYSIS SYSTEM  RELEASE 15.0      *****
 ANSYS Academic Teaching Advanced                  
 00203145          VERSION=LINUX x64     15:15:32  APR 01, 2014 CP=     21.039

                                                                               

 
  ***** POST1 NODAL DEGREE OF FREEDOM LISTING *****                            
 
  LOAD STEP=     1  SUBSTEP=     1                                             
   TIME=    1.0000      LOAD CASE=   0                                         
 
    NODE      VOLT  
    1015  0.94110E-04
    1016  0.84922E-04
    1017  0.66537E-04
    1018  0.59792E-04
    1019  0.28025E-03
    1020  0.19338E-03
    1021  0.15345E-03
    1022  0.36807E-03
    1023  0.25670E-03
    1024  0.78965E-04
    1025  0.57492E-04
    1026  0.39299E-04
    1027  0.58780E-04
    1028  0.49198E-04
    1029  0.31300E-04
    1030  0.16453E-03
    1031  0.33122E-04
    1032  0.98724E-04
    1033  0.69589E-04
    1034  0.21204E-04
    1035  0.44245E-04
    1036  0.52265E-04
    1037  0.30094E-03
    1038  0.22736E-03
    1039  0.87384E-04
    1040  0.11986E-03
    1041  0.27249E-04
    1042  0.24014E-04
    1043  0.17751E-04
    1044  0.19023E-04
    1045  0.35820E-04
    1046  0.48101E-04
    1047  0.97597E-04
    1048  0.16015E-03
    1049  0.28387E-03
    1050  0.12954E-03
    1051  0.79597E-04
    1052  0.48193E-03
    1053  0.48221E-03
1

 ***** ANSYS - ENGINEERING ANALYSIS SYSTEM  RELEASE 15.0      *****
 ANSYS Academic Teaching Advanced                  
 00203145          VERSION=LINUX x64     15:15:32  APR 01, 2014 CP=     21.041

                                                                               

 
  ***** POST1 NODAL DEGREE OF FREEDOM LISTING *****                            
 
  LOAD STEP=     1  SUBSTEP=     1                                             
   TIME=    1.0000      LOAD CASE=   0                                         
 
    NODE      VOLT  
    1054  0.48295E-03
    1055  0.47199E-03
    1056  0.45323E-03
    1057  0.24990E-03
    1058  0.23279E-03
    1059  0.46891E-03
    1060  0.47244E-03
    1061  0.45905E-03
    1062  0.45346E-03
    1063  0.46720E-03
    1064  0.45274E-03
    1065  0.48164E-03
    1066  0.48254E-03
    1067  0.48172E-03
    1068  0.48247E-03
    1069  0.48237E-03
    1070  0.47244E-03
    1071  0.46956E-03
    1072  0.47074E-03
    1073  0.47469E-03
    1074  0.46850E-03
    1075  0.48194E-03
    1076  0.47990E-03
    1077  0.48067E-03
    1078  0.47808E-03
    1079  0.48285E-03
    1080  0.48025E-03
    1081  0.44761E-03
    1082  0.44454E-03
    1083  0.44730E-03
    1084  0.44428E-03
    1085  0.43666E-03
    1086  0.43864E-03
    1087  0.44725E-03
    1088  0.44883E-03
    1089  0.44703E-03
    1090  0.44695E-03
    1091  0.43796E-03
    1092  0.42840E-03
1

 ***** ANSYS - ENGINEERING ANALYSIS SYSTEM  RELEASE 15.0      *****
 ANSYS Academic Teaching Advanced                  
 00203145          VERSION=LINUX x64     15:15:32  APR 01, 2014 CP=     21.043

                                                                               

 
  ***** POST1 NODAL DEGREE OF FREEDOM LISTING *****                            
 
  LOAD STEP=     1  SUBSTEP=     1                                             
   TIME=    1.0000      LOAD CASE=   0                                         
 
    NODE      VOLT  
    1093  0.46978E-03
    1094  0.46861E-03
    1095  0.47288E-03
    1096  0.47210E-03
    1097  0.47062E-03
    1098  0.47148E-03
    1099  0.46203E-03
    1100  0.47215E-03
    1101  0.39752E-03
    1102  0.40262E-03
    1103  0.39229E-03
    1104  0.39079E-03
    1105  0.39290E-03
    1106  0.39590E-03
    1107  0.37760E-03
    1108  0.45968E-03
    1109  0.45592E-03
    1110  0.45810E-03
    1111  0.45889E-03
    1112  0.48067E-03
    1113  0.45607E-03
    1114  0.45100E-03
    1115  0.46967E-03
    1116  0.36449E-03
    1117  0.43309E-03
    1118  0.48161E-03
    1119  0.47905E-03
    1120  0.24577E-03
    1121  0.24839E-03
    1122  0.27802E-03
    1123  0.27722E-03
    1124  0.24967E-03
    1125  0.25642E-03
    1126  0.26458E-03
    1127  0.27710E-03
    1128  0.25677E-03
    1129  0.25836E-03
    1130  0.26573E-03
    1131  0.24359E-03
1

 ***** ANSYS - ENGINEERING ANALYSIS SYSTEM  RELEASE 15.0      *****
 ANSYS Academic Teaching Advanced                  
 00203145          VERSION=LINUX x64     15:15:32  APR 01, 2014 CP=     21.045

                                                                               

 
  ***** POST1 NODAL DEGREE OF FREEDOM LISTING *****                            
 
  LOAD STEP=     1  SUBSTEP=     1                                             
   TIME=    1.0000      LOAD CASE=   0                                         
 
    NODE      VOLT  
    1132  0.26245E-03
    1133  0.27533E-03
    1134  0.24335E-03
    1135  0.22803E-03
    1136  0.44959E-03
    1137  0.44846E-03
    1138  0.45093E-03
    1139  0.44985E-03
    1140  0.45114E-03
    1141  0.45148E-03
    1142  0.45194E-03
    1143  0.44958E-03
    1144  0.43882E-03
    1145  0.37547E-03
    1146  0.48240E-03
    1147  0.47583E-03
    1148  0.48372E-03
    1149  0.37996E-03
    1150  0.45847E-03
    1151  0.46005E-03
    1152  0.45795E-03
    1153  0.45522E-03
    1154  0.36151E-03
    1155  0.38993E-03
    1156  0.39582E-03
    1157  0.39334E-03
    1158  0.38654E-03
    1159  0.39510E-03
    1160  0.40878E-03
    1161  0.48180E-03
    1162  0.46537E-03
    1163  0.48001E-03
    1164  0.48169E-03
    1165  0.47854E-03
    1166  0.46502E-03
    1167  0.47310E-03
    1168  0.47359E-03
    1169  0.46592E-03
    1170  0.47247E-03
1

 ***** ANSYS - ENGINEERING ANALYSIS SYSTEM  RELEASE 15.0      *****
 ANSYS Academic Teaching Advanced                  
 00203145          VERSION=LINUX x64     15:15:32  APR 01, 2014 CP=     21.047

                                                                               

 
  ***** POST1 NODAL DEGREE OF FREEDOM LISTING *****                            
 
  LOAD STEP=     1  SUBSTEP=     1                                             
   TIME=    1.0000      LOAD CASE=   0                                         
 
    NODE      VOLT  
    1171  0.47088E-03
    1172  0.46015E-03
    1173  0.46650E-04
    1174  0.47254E-04
    1175  0.60808E-04
    1176  0.61719E-04
    1177  0.98057E-04
    1178  0.41119E-04
    1179  0.14464E-04
    1180  0.50622E-04
    1181  0.32130E-03
    1182  0.14459E-03
    1183  0.52060E-04
    1184  0.19268E-03
    1185  0.31706E-03
    1186  0.14667E-04
    1187  0.28397E-04
    1188  0.23305E-04
    1189  0.22215E-04
    1190  0.78296E-05
    1191  0.78934E-05
    1192  0.26709E-04
    1193  0.93443E-05
    1194  0.27062E-04
    1195  0.94376E-05
    1196  0.14671E-03
    1197  0.10816E-03
    1198  0.73056E-04
    1199  0.68272E-04
    1200  0.15627E-03
    1201  0.41310E-04
    1202  0.54017E-04
    1203  0.38781E-04
    1204  0.39293E-04
    1205  0.51455E-04
    1206  0.47090E-04
    1207  0.46957E-04
    1208  0.51214E-04
    1209  0.55472E-04
1

 ***** ANSYS - ENGINEERING ANALYSIS SYSTEM  RELEASE 15.0      *****
 ANSYS Academic Teaching Advanced                  
 00203145          VERSION=LINUX x64     15:15:32  APR 01, 2014 CP=     21.049

                                                                               

 
  ***** POST1 NODAL DEGREE OF FREEDOM LISTING *****                            
 
  LOAD STEP=     1  SUBSTEP=     1                                             
   TIME=    1.0000      LOAD CASE=   0                                         
 
    NODE      VOLT  
    1210  0.52776E-04
    1211  0.65306E-04
    1212  0.21598E-03
    1213  0.32377E-03
    1214  0.24681E-03
    1215  0.27946E-04
    1216  0.32747E-04
    1217  0.57757E-04
    1218  0.69344E-04
    1219  0.62563E-04
    1220  0.44744E-04
    1221  0.54921E-04
    1222  0.64643E-04
    1223  0.58890E-04
    1224  0.56680E-04
    1225  0.51920E-04
    1226  0.76600E-04
    1227  0.13869E-03
    1228  0.53444E-04
    1229  0.50719E-04
    1230  0.52355E-04
    1231  0.81506E-04
    1232  0.98154E-04
    1233  0.43424E-04
    1234  0.38631E-04
    1235  0.44740E-04
    1236  0.45917E-04
    1237  0.38020E-04
    1238  0.51791E-04
    1239  0.42434E-04
    1240  0.57176E-04
    1241  0.68064E-04
    1242  0.57315E-04
    1243  0.30611E-04
    1244  0.54146E-04
    1245  0.35073E-04
    1246  0.29909E-04
    1247  0.47008E-04
    1248  0.34742E-04
1

 ***** ANSYS - ENGINEERING ANALYSIS SYSTEM  RELEASE 15.0      *****
 ANSYS Academic Teaching Advanced                  
 00203145          VERSION=LINUX x64     15:15:32  APR 01, 2014 CP=     21.050

                                                                               

 
  ***** POST1 NODAL DEGREE OF FREEDOM LISTING *****                            
 
  LOAD STEP=     1  SUBSTEP=     1                                             
   TIME=    1.0000      LOAD CASE=   0                                         
 
    NODE      VOLT  
    1249  0.34397E-04
    1250  0.33585E-04
    1251  0.32117E-04
    1252  0.29347E-04
    1253  0.29098E-04
    1254  0.31237E-04
    1255  0.32976E-04
    1256  0.34847E-04
    1257  0.40018E-04
    1258  0.51380E-04
    1259  0.62318E-04
    1260  0.27563E-04
    1261  0.22405E-04
    1262  0.21866E-04
    1263  0.20658E-04
    1264  0.21584E-04
    1265  0.26130E-04
    1266  0.36316E-04
    1267  0.82656E-04
    1268  0.18032E-04
    1269  0.17452E-04
    1270  0.16758E-04
    1271  0.11313E-04
    1272  0.10693E-04
    1273  0.12034E-04
    1274  0.11407E-04
    1275  0.11055E-04
    1276  0.10681E-04
    1277  0.10591E-04
    1278  0.10732E-04
    1279  0.11467E-04
    1280  0.12627E-04
    1281  0.14398E-04
    1282  0.17275E-04
    1283  0.20095E-04
    1284  0.26892E-04
    1285  0.65144E-04
    1286  0.10031E-03
    1287  0.10846E-03
1

 ***** ANSYS - ENGINEERING ANALYSIS SYSTEM  RELEASE 15.0      *****
 ANSYS Academic Teaching Advanced                  
 00203145          VERSION=LINUX x64     15:15:32  APR 01, 2014 CP=     21.052

                                                                               

 
  ***** POST1 NODAL DEGREE OF FREEDOM LISTING *****                            
 
  LOAD STEP=     1  SUBSTEP=     1                                             
   TIME=    1.0000      LOAD CASE=   0                                         
 
    NODE      VOLT  
    1288  0.75975E-04
    1289  0.21483E-03
    1290  0.27580E-03
    1291  0.15836E-04
    1292  0.14998E-04
    1293  0.15510E-04
    1294  0.15492E-04
    1295  0.16149E-04
    1296  0.14102E-04
    1297  0.14158E-04
    1298  0.13975E-04
    1299  0.24442E-04
    1300  0.21747E-04
    1301  0.42584E-04
    1302  0.34991E-04
    1303  0.79294E-04
    1304  0.44825E-04
    1305  0.27037E-04
    1306  0.30372E-04
    1307  0.30263E-04
    1308  0.14661E-03
    1309  0.44285E-04
    1310  0.30728E-04
    1311  0.23361E-04
    1312  0.20743E-04
    1313  0.21131E-04
    1314  0.22874E-04
    1315  0.21753E-04
    1316  0.33777E-04
    1317  0.72853E-04
    1318  0.46557E-04
    1319  0.40516E-04
    1320  0.36446E-04
    1321  0.41859E-04
    1322  0.45461E-04
    1323  0.61859E-04
    1324  0.49757E-04
    1325  0.11224E-03
    1326  0.56170E-04
1

 ***** ANSYS - ENGINEERING ANALYSIS SYSTEM  RELEASE 15.0      *****
 ANSYS Academic Teaching Advanced                  
 00203145          VERSION=LINUX x64     15:15:32  APR 01, 2014 CP=     21.053

                                                                               

 
  ***** POST1 NODAL DEGREE OF FREEDOM LISTING *****                            
 
  LOAD STEP=     1  SUBSTEP=     1                                             
   TIME=    1.0000      LOAD CASE=   0                                         
 
    NODE      VOLT  
    1327  0.64964E-04
    1328  0.56851E-04
    1329  0.67371E-04
    1330  0.21867E-03
    1331  0.48501E-04
    1332  0.48274E-04
    1333  0.18448E-04
    1334  0.15576E-04
    1335   0.0000    
    1336   0.0000    
    1337   0.0000    
    1338   0.0000    
    1339   0.0000    
    1340   0.0000    
    1341   0.0000    
    1342   0.0000    
    1343   0.0000    
    1344   0.0000    
    1345   0.0000    
    1346   0.0000    
    1347   0.0000    
    1348   0.0000    
    1349   0.0000    
    1350   0.0000    
    1351   0.0000    
    1352   0.0000    
    1353   0.0000    
    1354   0.0000    
    1355   0.0000    
    1356   0.0000    
    1357   0.0000    
    1358   0.0000    
    1359   0.0000    
    1360   0.0000    
    1361   0.0000    
    1362   0.0000    
    1363   0.0000    
    1364   0.0000    
    1365   0.0000    
1

 ***** ANSYS - ENGINEERING ANALYSIS SYSTEM  RELEASE 15.0      *****
 ANSYS Academic Teaching Advanced                  
 00203145          VERSION=LINUX x64     15:15:32  APR 01, 2014 CP=     21.055

                                                                               

 
  ***** POST1 NODAL DEGREE OF FREEDOM LISTING *****                            
 
  LOAD STEP=     1  SUBSTEP=     1                                             
   TIME=    1.0000      LOAD CASE=   0                                         
 
    NODE      VOLT  
    1366   0.0000    
    1367   0.0000    
    1368   0.0000    
    1369   0.0000    
    1370   0.0000    
    1371   0.0000    
    1372   0.0000    
    1373   0.0000    
    1374   0.0000    
    1375   0.0000    
    1376   0.0000    
    1377   0.0000    
    1378   0.0000    
    1379   0.0000    
    1380   0.0000    
    1381   0.0000    
    1382   0.0000    
    1383   0.0000    
    1384   0.0000    
    1385   0.0000    
    1386   0.0000    
    1387   0.0000    
    1388   0.0000    
    1389   0.0000    
    1390   0.0000    
    1391   0.0000    
    1392   0.0000    
    1393   0.0000    
    1394   0.0000    
    1395   0.0000    
    1396   0.0000    
    1397   0.0000    
    1398   0.0000    
    1399   0.0000    
    1400   0.0000    
    1401   0.0000    
    1402   0.0000    
    1403   0.0000    
    1404   0.0000    
1

 ***** ANSYS - ENGINEERING ANALYSIS SYSTEM  RELEASE 15.0      *****
 ANSYS Academic Teaching Advanced                  
 00203145          VERSION=LINUX x64     15:15:32  APR 01, 2014 CP=     21.057

                                                                               

 
  ***** POST1 NODAL DEGREE OF FREEDOM LISTING *****                            
 
  LOAD STEP=     1  SUBSTEP=     1                                             
   TIME=    1.0000      LOAD CASE=   0                                         
 
    NODE      VOLT  
    1405   0.0000    
    1406   0.0000    
    1407   0.0000    
    1408   0.0000    
    1409   0.0000    
    1410   0.0000    
    1411   0.0000    
    1412   0.0000    
    1413   0.0000    
    1414   0.0000    
    1415   0.0000    
    1416   0.0000    
    1417   0.0000    
    1418   0.0000    
    1419   0.0000    
    1420   0.0000    
    1421   0.0000    
    1422   0.0000    
    1423   0.0000    
    1424   0.0000    
    1425   0.0000    
    1426   0.0000    
    1427   0.0000    
    1428   0.0000    
    1429   0.0000    
    1430   0.0000    
    1431   0.0000    
    1432   0.0000    
    1433   0.0000    
    1434   0.0000    
    1435   0.0000    
    1436   0.0000    
    1437   0.0000    
    1438   0.0000    
    1439   0.0000    
    1440   0.0000    
    1441   0.0000    
    1442   0.0000    
    1443   0.0000    
1

 ***** ANSYS - ENGINEERING ANALYSIS SYSTEM  RELEASE 15.0      *****
 ANSYS Academic Teaching Advanced                  
 00203145          VERSION=LINUX x64     15:15:32  APR 01, 2014 CP=     21.058

                                                                               

 
  ***** POST1 NODAL DEGREE OF FREEDOM LISTING *****                            
 
  LOAD STEP=     1  SUBSTEP=     1                                             
   TIME=    1.0000      LOAD CASE=   0                                         
 
    NODE      VOLT  
    1444   0.0000    
    1445   0.0000    
    1446   0.0000    
    1447   0.0000    
    1448   0.0000    
    1449   0.0000    
    1450   0.0000    
    1451   0.0000    
    1452   0.0000    
    1453   0.0000    
    1454   0.0000    
    1455   0.0000    
    1456   0.0000    
    1457   0.0000    
    1458   0.0000    
    1459   0.0000    
    1460   0.0000    
    1461   0.0000    
    1462   0.0000    
    1463   0.0000    
    1464   0.0000    
    1465   0.0000    
    1466   0.0000    
    1467   0.0000    
    1468   0.0000    
    1469   0.0000    
    1470   0.0000    
    1471   0.0000    
    1472   0.0000    
    1473   0.0000    
    1474   0.0000    
    1475   0.0000    
    1476   0.0000    
    1477   0.0000    
    1478   0.0000    
    1479   0.0000    
    1480   0.0000    
    1481   0.0000    
    1482   0.0000    
1

 ***** ANSYS - ENGINEERING ANALYSIS SYSTEM  RELEASE 15.0      *****
 ANSYS Academic Teaching Advanced                  
 00203145          VERSION=LINUX x64     15:15:32  APR 01, 2014 CP=     21.059

                                                                               

 
  ***** POST1 NODAL DEGREE OF FREEDOM LISTING *****                            
 
  LOAD STEP=     1  SUBSTEP=     1                                             
   TIME=    1.0000      LOAD CASE=   0                                         
 
    NODE      VOLT  
    1483   0.0000    
    1484   0.0000    
    1485   0.0000    
    1486   0.0000    
    1487   0.0000    
    1488   0.0000    
    1489   0.0000    
    1490   0.0000    
    1491   0.0000    
    1492   0.0000    
    1493   0.0000    
    1494   0.0000    
    1495   0.0000    
    1496   0.0000    
    1497   0.0000    
    1498   0.0000    
    1499   0.0000    
    1500   0.0000    
    1501   0.0000    
    1502   0.0000    
    1503   0.0000    
    1504   0.0000    
    1505   0.0000    
    1506   0.0000    
    1507   0.0000    
    1508   0.0000    
    1509   0.0000    
    1510   0.0000    
    1511   0.0000    
    1512   0.0000    
    1513   0.0000    
    1514   0.0000    
    1515   0.0000    
    1516   0.0000    
    1517   0.0000    
    1518   0.0000    
    1519   0.0000    
    1520   0.0000    
    1521   0.0000    
1

 ***** ANSYS - ENGINEERING ANALYSIS SYSTEM  RELEASE 15.0      *****
 ANSYS Academic Teaching Advanced                  
 00203145          VERSION=LINUX x64     15:15:32  APR 01, 2014 CP=     21.061

                                                                               

 
  ***** POST1 NODAL DEGREE OF FREEDOM LISTING *****                            
 
  LOAD STEP=     1  SUBSTEP=     1                                             
   TIME=    1.0000      LOAD CASE=   0                                         
 
    NODE      VOLT  
    1522   0.0000    
    1523   0.0000    
    1524   0.0000    
    1525   0.0000    
    1526   0.0000    
    1527   0.0000    
    1528   0.0000    
    1529   0.0000    
    1530   0.0000    
    1531   0.0000    
    1532   0.0000    
    1533   0.0000    
    1534   0.0000    
    1535   0.0000    
    1536   0.0000    
    1537   0.0000    
    1538   0.0000    
    1539   0.0000    
    1540   0.0000    
    1541   0.0000    
    1542   0.0000    
    1543   0.0000    
    1544   0.0000    
    1545   0.0000    
    1546   0.0000    
    1547   0.0000    
    1548   0.0000    
    1549   0.0000    
    1550   0.0000    
    1551   0.0000    
    1552   0.0000    
    1553   0.0000    
    1554   0.0000    
    1555   0.0000    
    1556   0.0000    
    1557   0.0000    
    1558   0.0000    
    1559   0.0000    
    1560   0.0000    
1

 ***** ANSYS - ENGINEERING ANALYSIS SYSTEM  RELEASE 15.0      *****
 ANSYS Academic Teaching Advanced                  
 00203145          VERSION=LINUX x64     15:15:32  APR 01, 2014 CP=     21.063

                                                                               

 
  ***** POST1 NODAL DEGREE OF FREEDOM LISTING *****                            
 
  LOAD STEP=     1  SUBSTEP=     1                                             
   TIME=    1.0000      LOAD CASE=   0                                         
 
    NODE      VOLT  
    1561   0.0000    
    1562   0.0000    
    1563   0.0000    
    1564   0.0000    
    1565   0.0000    
    1566   0.0000    
    1567   0.0000    
    1568   0.0000    
    1569   0.0000    
    1570   0.0000    
    1571   0.0000    
    1572   0.0000    
    1573   0.0000    
    1574   0.0000    
    1575   0.0000    
    1576   0.0000    
    1577   0.0000    
    1578   0.0000    
    1579   0.0000    
    1580   0.0000    
    1581   0.0000    
    1582   0.0000    
    1583   0.0000    
    1584   0.0000    
    1585   0.0000    
    1586   0.0000    
    1587   0.0000    
    1588   0.0000    
    1589   0.0000    
    1590   0.0000    
    1591   0.0000    
    1592   0.0000    
    1593   0.0000    
    1594   0.0000    
    1595   0.0000    
    1596   0.0000    
    1597   0.0000    
    1598   0.0000    
    1599   0.0000    
1

 ***** ANSYS - ENGINEERING ANALYSIS SYSTEM  RELEASE 15.0      *****
 ANSYS Academic Teaching Advanced                  
 00203145          VERSION=LINUX x64     15:15:32  APR 01, 2014 CP=     21.065

                                                                               

 
  ***** POST1 NODAL DEGREE OF FREEDOM LISTING *****                            
 
  LOAD STEP=     1  SUBSTEP=     1                                             
   TIME=    1.0000      LOAD CASE=   0                                         
 
    NODE      VOLT  
    1600   0.0000    
    1601   0.0000    
    1602   0.0000    
    1603   0.0000    
    1604   0.0000    
    1605   0.0000    
    1606   0.0000    
    1607   0.0000    
    1608   0.0000    
    1609   0.0000    
    1610   0.0000    
    1611   0.0000    
    1612   0.0000    
    1613   0.0000    
    1614   0.0000    
    1615   0.0000    
    1616   0.0000    
    1617   0.0000    
    1618   0.0000    
    1619   0.0000    
    1620   0.0000    
    1621   0.0000    
    1622   0.0000    
    1623   0.0000    
    1624   0.0000    
    1625   0.0000    
    1626   0.0000    
    1627   0.0000    
    1628   0.0000    
    1629   0.0000    
    1630   0.0000    
    1631   0.0000    
    1632   0.0000    
    1633   0.0000    
    1634   0.0000    
    1635   0.0000    
    1636   0.0000    
    1637   0.0000    
    1638   0.0000    
1

 ***** ANSYS - ENGINEERING ANALYSIS SYSTEM  RELEASE 15.0      *****
 ANSYS Academic Teaching Advanced                  
 00203145          VERSION=LINUX x64     15:15:32  APR 01, 2014 CP=     21.067

                                                                               

 
  ***** POST1 NODAL DEGREE OF FREEDOM LISTING *****                            
 
  LOAD STEP=     1  SUBSTEP=     1                                             
   TIME=    1.0000      LOAD CASE=   0                                         
 
    NODE      VOLT  
    1639   0.0000    
    1640   0.0000    
    1641   0.0000    
    1642   0.0000    
    1643   0.0000    
    1644   0.0000    
    1645   0.0000    
    1646   0.0000    
    1647   0.0000    
    1648   0.0000    
    1649   0.0000    
    1650   0.0000    
    1651   0.0000    
    1652   0.0000    
    1653   0.0000    
    1654   0.0000    
    1655   0.0000    
    1656   0.0000    
    1657   0.0000    
    1658   0.0000    
    1659   0.0000    
    1660   0.0000    
    1661   0.0000    
    1662   0.0000    
    1663   0.0000    
    1664   0.0000    
    1665   0.0000    
    1666   0.0000    
    1667   0.0000    
    1668   0.0000    
    1669   0.0000    
    1670   0.0000    
    1671   0.0000    
    1672   0.0000    
    1673   0.0000    
    1674   0.0000    
    1675   0.0000    
    1676   0.0000    
    1677   0.0000    
1

 ***** ANSYS - ENGINEERING ANALYSIS SYSTEM  RELEASE 15.0      *****
 ANSYS Academic Teaching Advanced                  
 00203145          VERSION=LINUX x64     15:15:32  APR 01, 2014 CP=     21.068

                                                                               

 
  ***** POST1 NODAL DEGREE OF FREEDOM LISTING *****                            
 
  LOAD STEP=     1  SUBSTEP=     1                                             
   TIME=    1.0000      LOAD CASE=   0                                         
 
    NODE      VOLT  
    1678   0.0000    
    1679   0.0000    
    1680   0.0000    
    1681   0.0000    
    1682   0.0000    
    1683   0.0000    
    1684   0.0000    
    1685   0.0000    
    1686   0.0000    
    1687   0.0000    
    1688   0.0000    
    1689   0.0000    
    1690   0.0000    
    1691   0.0000    
    1692   0.0000    
    1693   0.0000    
    1694   0.0000    
    1695   0.0000    
    1696   0.0000    
    1697   0.0000    
    1698   0.0000    
    1699   0.0000    
    1700   0.0000    
    1701   0.0000    
    1702   0.0000    
    1703   0.0000    
    1704   0.0000    
    1705   0.0000    
    1706   0.0000    
    1707   0.0000    
    1708   0.0000    
    1709   0.0000    
    1710   0.0000    
    1711   0.0000    
    1712   0.0000    
    1713   0.0000    
    1714   0.0000    
    1715   0.0000    
    1716   0.0000    
1

 ***** ANSYS - ENGINEERING ANALYSIS SYSTEM  RELEASE 15.0      *****
 ANSYS Academic Teaching Advanced                  
 00203145          VERSION=LINUX x64     15:15:32  APR 01, 2014 CP=     21.070

                                                                               

 
  ***** POST1 NODAL DEGREE OF FREEDOM LISTING *****                            
 
  LOAD STEP=     1  SUBSTEP=     1                                             
   TIME=    1.0000      LOAD CASE=   0                                         
 
    NODE      VOLT  
    1717   0.0000    
    1718   0.0000    
    1719   0.0000    
    1720   0.0000    
    1721   0.0000    
    1722   0.0000    
    1723   0.0000    
    1724   0.0000    
    1725   0.0000    
    1726   0.0000    
    1727   0.0000    
    1728   0.0000    
    1729   0.0000    
    1730   0.0000    
    1731   0.0000    
    1732   0.0000    
    1733   0.0000    
    1734   0.0000    
    1735   0.0000    
    1736   0.0000    
    1737   0.0000    
    1738   0.0000    
    1739   0.0000    
    1740   0.0000    
    1741   0.0000    
    1742   0.0000    
    1743   0.0000    
    1744   0.0000    
    1745   0.0000    
    1746   0.0000    
    1747   0.0000    
    1748   0.0000    
    1749   0.0000    
    1750   0.0000    
    1751   0.0000    
    1752   0.0000    
    1753   0.0000    
    1754   0.0000    
    1755   0.0000    
1

 ***** ANSYS - ENGINEERING ANALYSIS SYSTEM  RELEASE 15.0      *****
 ANSYS Academic Teaching Advanced                  
 00203145          VERSION=LINUX x64     15:15:32  APR 01, 2014 CP=     21.071

                                                                               

 
  ***** POST1 NODAL DEGREE OF FREEDOM LISTING *****                            
 
  LOAD STEP=     1  SUBSTEP=     1                                             
   TIME=    1.0000      LOAD CASE=   0                                         
 
    NODE      VOLT  
    1756   0.0000    
    1757   0.0000    
    1758   0.0000    
    1759   0.0000    
    1760   0.0000    
    1761   0.0000    
    1762   0.0000    
    1763   0.0000    
    1764   0.0000    
    1765   0.0000    
    1766   0.0000    
    1767   0.0000    
    1768   0.0000    
    1769   0.0000    
    1770   0.0000    
    1771   0.0000    
    1772   0.0000    
    1773   0.0000    
    1774  0.20598E-03
    1775  0.23987E-03
    1776  0.20949E-03
    1777  0.22669E-03
    1778  0.45082E-04
    1779  0.25996E-03
    1780  0.29323E-03
    1781  0.86732E-04
    1782  0.66784E-04
    1783  0.31767E-04
    1784  0.66680E-04
    1785  0.31987E-04
    1786  0.29635E-03
    1787  0.29074E-03
    1788  0.38087E-03
    1789  0.38053E-03
    1790  0.24227E-03
    1791  0.37530E-03
    1792  0.28481E-03
    1793  0.37670E-03
    1794  0.19821E-03
1

 ***** ANSYS - ENGINEERING ANALYSIS SYSTEM  RELEASE 15.0      *****
 ANSYS Academic Teaching Advanced                  
 00203145          VERSION=LINUX x64     15:15:32  APR 01, 2014 CP=     21.073

                                                                               

 
  ***** POST1 NODAL DEGREE OF FREEDOM LISTING *****                            
 
  LOAD STEP=     1  SUBSTEP=     1                                             
   TIME=    1.0000      LOAD CASE=   0                                         
 
    NODE      VOLT  
    1795  0.16880E-03
    1796  0.17358E-03
    1797  0.15799E-03
    1798  0.15475E-03
    1799  0.15716E-03
    1800  0.17776E-03
    1801  0.17405E-03
    1802  0.21270E-03
    1803  0.22097E-03
    1804  0.22545E-03
    1805  0.22291E-03
    1806  0.21305E-03
    1807  0.21450E-03
    1808  0.12758E-03
    1809  0.12677E-03
    1810  0.13373E-03
    1811  0.13377E-03
    1812  0.12920E-03
    1813  0.13165E-03
    1814  0.11623E-03
    1815  0.11702E-03
    1816  0.12438E-03
    1817  0.12519E-03
    1818  0.11740E-03
    1819  0.13782E-03
    1820  0.15875E-03
    1821  0.13203E-03
    1822  0.11094E-03
    1823  0.93948E-04
    1824  0.28046E-03
    1825  0.27420E-03
    1826  0.26873E-03
    1827  0.88052E-04
    1828  0.94930E-04
    1829  0.95387E-04
    1830  0.92770E-04
    1831  0.89665E-04
    1832  0.87815E-04
    1833  0.80491E-04
1

 ***** ANSYS - ENGINEERING ANALYSIS SYSTEM  RELEASE 15.0      *****
 ANSYS Academic Teaching Advanced                  
 00203145          VERSION=LINUX x64     15:15:32  APR 01, 2014 CP=     21.075

                                                                               

 
  ***** POST1 NODAL DEGREE OF FREEDOM LISTING *****                            
 
  LOAD STEP=     1  SUBSTEP=     1                                             
   TIME=    1.0000      LOAD CASE=   0                                         
 
    NODE      VOLT  
    1834  0.13112E-03
    1835  0.23467E-03
    1836  0.17687E-03
    1837  0.13068E-03
    1838  0.94770E-04
    1839  0.35198E-03
    1840  0.35148E-03
    1841  0.35837E-03
    1842  0.35843E-03
    1843  0.34427E-03
    1844  0.34383E-03
    1845  0.35128E-03
    1846  0.35044E-03
    1847  0.45119E-04
    1848  0.45389E-04
    1849  0.51390E-04
    1850  0.53399E-04
    1851  0.52594E-04
    1852  0.51438E-04
    1853  0.54018E-04
    1854  0.53160E-04
    1855  0.51850E-04
    1856  0.50977E-04
    1857  0.50132E-04
    1858  0.49458E-04
    1859  0.47999E-04
    1860  0.49295E-04
    1861  0.41375E-04
    1862  0.40442E-04
    1863  0.16651E-03
    1864  0.22074E-03
    1865  0.78178E-04
    1866  0.11397E-03
    1867  0.80446E-04
    1868  0.18476E-03
    1869  0.73557E-04
    1870  0.85936E-04
    1871  0.87873E-04
    1872  0.89541E-04
1

 ***** ANSYS - ENGINEERING ANALYSIS SYSTEM  RELEASE 15.0      *****
 ANSYS Academic Teaching Advanced                  
 00203145          VERSION=LINUX x64     15:15:32  APR 01, 2014 CP=     21.076

                                                                               

 
  ***** POST1 NODAL DEGREE OF FREEDOM LISTING *****                            
 
  LOAD STEP=     1  SUBSTEP=     1                                             
   TIME=    1.0000      LOAD CASE=   0                                         
 
    NODE      VOLT  
    1873  0.94269E-04
    1874  0.94950E-04
    1875  0.93174E-04
    1876  0.27198E-03
    1877  0.25983E-03
    1878  0.28405E-03
    1879  0.27183E-03
    1880  0.11431E-03
    1881  0.20797E-03
    1882  0.14881E-03
    1883  0.16364E-03
    1884  0.14463E-03
    1885  0.17025E-03
    1886  0.17456E-03
    1887  0.16114E-03
    1888  0.31187E-03
    1889  0.31987E-03
    1890  0.58415E-04
    1891  0.16367E-03
    1892  0.13957E-03
    1893  0.78274E-04
    1894  0.62903E-04
    1895  0.36373E-03
    1896  0.11988E-03
    1897  0.16903E-04
    1898  0.21990E-04
    1899  0.10112E-03
    1900  0.10051E-03
    1901  0.14072E-03
    1902  0.11837E-03
    1903  0.77836E-04
    1904  0.75977E-04
    1905  0.69471E-04
    1906  0.63387E-04
    1907  0.27753E-03
    1908  0.18463E-03
    1909  0.37280E-03
    1910  0.25202E-03
    1911  0.58510E-04
1

 ***** ANSYS - ENGINEERING ANALYSIS SYSTEM  RELEASE 15.0      *****
 ANSYS Academic Teaching Advanced                  
 00203145          VERSION=LINUX x64     15:15:32  APR 01, 2014 CP=     21.077

                                                                               

 
  ***** POST1 NODAL DEGREE OF FREEDOM LISTING *****                            
 
  LOAD STEP=     1  SUBSTEP=     1                                             
   TIME=    1.0000      LOAD CASE=   0                                         
 
    NODE      VOLT  
    1912  0.20151E-03
    1913  0.73823E-04
    1914  0.39659E-04
    1915  0.59373E-04
    1916  0.49268E-04
    1917  0.31337E-04
    1918  0.31923E-03
    1919  0.30287E-03
    1920  0.16915E-03
    1921  0.21200E-04
    1922  0.44823E-04
    1923  0.53077E-04
    1924  0.28617E-03
    1925  0.20922E-03
    1926  0.32393E-04
    1927  0.86870E-04
    1928  0.62436E-04
    1929  0.89927E-04
    1930  0.12316E-03
    1931  0.17807E-04
    1932  0.19078E-04
    1933  0.27225E-04
    1934  0.24123E-04
    1935  0.48235E-04
    1936  0.35914E-04
    1937  0.10252E-03
    1938  0.13686E-03
    1939  0.21002E-03
    1940  0.29046E-03
    1941  0.92949E-04
    1942  0.97348E-04
    1943  0.48212E-03
    1944  0.48309E-03
    1945  0.48091E-03
    1946  0.47264E-03
    1947  0.45278E-03
    1948  0.22737E-03
    1949  0.25756E-03
    1950  0.46702E-03
1

 ***** ANSYS - ENGINEERING ANALYSIS SYSTEM  RELEASE 15.0      *****
 ANSYS Academic Teaching Advanced                  
 00203145          VERSION=LINUX x64     15:15:32  APR 01, 2014 CP=     21.079

                                                                               

 
  ***** POST1 NODAL DEGREE OF FREEDOM LISTING *****                            
 
  LOAD STEP=     1  SUBSTEP=     1                                             
   TIME=    1.0000      LOAD CASE=   0                                         
 
    NODE      VOLT  
    1951  0.47096E-03
    1952  0.45746E-03
    1953  0.45116E-03
    1954  0.46473E-03
    1955  0.45028E-03
    1956  0.48161E-03
    1957  0.48134E-03
    1958  0.48213E-03
    1959  0.48184E-03
    1960  0.48190E-03
    1961  0.47358E-03
    1962  0.46933E-03
    1963  0.46998E-03
    1964  0.47335E-03
    1965  0.46819E-03
    1966  0.48302E-03
    1967  0.48021E-03
    1968  0.47941E-03
    1969  0.47848E-03
    1970  0.48011E-03
    1971  0.47886E-03
    1972  0.44953E-03
    1973  0.44764E-03
    1974  0.44938E-03
    1975  0.44526E-03
    1976  0.43747E-03
    1977  0.43840E-03
    1978  0.44646E-03
    1979  0.44823E-03
    1980  0.44814E-03
    1981  0.44164E-03
    1982  0.43265E-03
    1983  0.42661E-03
    1984  0.47021E-03
    1985  0.46817E-03
    1986  0.47190E-03
    1987  0.47212E-03
    1988  0.46998E-03
    1989  0.47058E-03
1

 ***** ANSYS - ENGINEERING ANALYSIS SYSTEM  RELEASE 15.0      *****
 ANSYS Academic Teaching Advanced                  
 00203145          VERSION=LINUX x64     15:15:32  APR 01, 2014 CP=     21.081

                                                                               

 
  ***** POST1 NODAL DEGREE OF FREEDOM LISTING *****                            
 
  LOAD STEP=     1  SUBSTEP=     1                                             
   TIME=    1.0000      LOAD CASE=   0                                         
 
    NODE      VOLT  
    1990  0.46115E-03
    1991  0.47115E-03
    1992  0.39665E-03
    1993  0.40326E-03
    1994  0.39603E-03
    1995  0.39314E-03
    1996  0.39380E-03
    1997  0.38954E-03
    1998  0.36979E-03
    1999  0.45973E-03
    2000  0.45632E-03
    2001  0.45790E-03
    2002  0.45813E-03
    2003  0.48028E-03
    2004  0.45514E-03
    2005  0.45175E-03
    2006  0.47075E-03
    2007  0.36092E-03
    2008  0.43248E-03
    2009  0.47932E-03
    2010  0.47570E-03
    2011  0.27581E-03
    2012  0.26515E-03
    2013  0.27732E-03
    2014  0.26252E-03
    2015  0.24477E-03
    2016  0.26176E-03
    2017  0.26681E-03
    2018  0.27778E-03
    2019  0.25785E-03
    2020  0.24495E-03
    2021  0.24781E-03
    2022  0.24897E-03
    2023  0.24766E-03
    2024  0.24539E-03
    2025  0.21978E-03
    2026  0.23000E-03
    2027  0.44952E-03
    2028  0.44986E-03
1

 ***** ANSYS - ENGINEERING ANALYSIS SYSTEM  RELEASE 15.0      *****
 ANSYS Academic Teaching Advanced                  
 00203145          VERSION=LINUX x64     15:15:32  APR 01, 2014 CP=     21.083

                                                                               

 
  ***** POST1 NODAL DEGREE OF FREEDOM LISTING *****                            
 
  LOAD STEP=     1  SUBSTEP=     1                                             
   TIME=    1.0000      LOAD CASE=   0                                         
 
    NODE      VOLT  
    2029  0.44971E-03
    2030  0.44966E-03
    2031  0.45025E-03
    2032  0.45043E-03
    2033  0.45052E-03
    2034  0.44970E-03
    2035  0.43828E-03
    2036  0.37464E-03
    2037  0.48263E-03
    2038  0.47677E-03
    2039  0.48309E-03
    2040  0.37517E-03
    2041  0.45808E-03
    2042  0.45949E-03
    2043  0.45793E-03
    2044  0.45566E-03
    2045  0.35566E-03
    2046  0.37958E-03
    2047  0.40143E-03
    2048  0.39270E-03
    2049  0.38869E-03
    2050  0.40497E-03
    2051  0.41073E-03
    2052  0.47968E-03
    2053  0.46535E-03
    2054  0.47876E-03
    2055  0.48094E-03
    2056  0.47902E-03
    2057  0.46323E-03
    2058  0.47241E-03
    2059  0.47302E-03
    2060  0.46536E-03
    2061  0.47327E-03
    2062  0.47146E-03
    2063  0.45750E-03
    2064  0.12250E-03
    2065  0.83845E-04
    2066  0.39663E-04
    2067  0.96699E-04
1

 ***** ANSYS - ENGINEERING ANALYSIS SYSTEM  RELEASE 15.0      *****
 ANSYS Academic Teaching Advanced                  
 00203145          VERSION=LINUX x64     15:15:32  APR 01, 2014 CP=     21.084

                                                                               

 
  ***** POST1 NODAL DEGREE OF FREEDOM LISTING *****                            
 
  LOAD STEP=     1  SUBSTEP=     1                                             
   TIME=    1.0000      LOAD CASE=   0                                         
 
    NODE      VOLT  
    2068  0.14022E-04
    2069  0.51368E-04
    2070  0.45127E-04
    2071  0.60634E-04
    2072  0.35725E-03
    2073  0.13165E-03
    2074  0.48153E-04
    2075  0.69882E-05
    2076  0.21220E-04
    2077  0.26708E-04
    2078  0.21439E-04
    2079  0.70148E-05
    2080  0.70582E-05
    2081  0.30757E-04
    2082  0.14909E-04
    2083  0.32151E-04
    2084  0.14969E-04
    2085  0.17562E-03
    2086  0.46443E-04
    2087  0.38046E-04
    2088  0.44613E-04
    2089  0.40107E-04
    2090  0.63475E-04
    2091  0.69449E-04
    2092  0.45839E-04
    2093  0.61273E-04
    2094  0.38708E-04
    2095  0.44295E-04
    2096  0.54869E-04
    2097  0.51341E-04
    2098  0.18281E-03
    2099  0.51483E-04
    2100  0.27752E-03
    2101  0.51140E-04
    2102  0.59595E-04
    2103  0.24087E-03
    2104  0.32516E-04
    2105  0.25694E-04
    2106  0.27824E-04
1

 ***** ANSYS - ENGINEERING ANALYSIS SYSTEM  RELEASE 15.0      *****
 ANSYS Academic Teaching Advanced                  
 00203145          VERSION=LINUX x64     15:15:32  APR 01, 2014 CP=     21.086

                                                                               

 
  ***** POST1 NODAL DEGREE OF FREEDOM LISTING *****                            
 
  LOAD STEP=     1  SUBSTEP=     1                                             
   TIME=    1.0000      LOAD CASE=   0                                         
 
    NODE      VOLT  
    2107  0.56154E-04
    2108  0.68171E-04
    2109  0.72541E-04
    2110  0.68454E-04
    2111  0.65111E-04
    2112  0.52558E-04
    2113  0.54074E-04
    2114  0.64163E-04
    2115  0.59108E-04
    2116  0.57697E-04
    2117  0.57656E-04
    2118  0.85170E-04
    2119  0.54216E-04
    2120  0.59403E-04
    2121  0.51749E-04
    2122  0.70399E-04
    2123  0.94924E-04
    2124  0.14303E-03
    2125  0.52932E-04
    2126  0.50683E-04
    2127  0.52075E-04
    2128  0.99339E-04
    2129  0.43119E-04
    2130  0.46481E-04
    2131  0.38509E-04
    2132  0.44549E-04
    2133  0.45696E-04
    2134  0.37402E-04
    2135  0.51063E-04
    2136  0.41664E-04
    2137  0.56006E-04
    2138  0.66689E-04
    2139  0.55095E-04
    2140  0.35589E-03
    2141  0.36037E-03
    2142  0.16374E-03
    2143  0.33940E-04
    2144  0.50371E-04
    2145  0.34260E-04
1

 ***** ANSYS - ENGINEERING ANALYSIS SYSTEM  RELEASE 15.0      *****
 ANSYS Academic Teaching Advanced                  
 00203145          VERSION=LINUX x64     15:15:32  APR 01, 2014 CP=     21.087

                                                                               

 
  ***** POST1 NODAL DEGREE OF FREEDOM LISTING *****                            
 
  LOAD STEP=     1  SUBSTEP=     1                                             
   TIME=    1.0000      LOAD CASE=   0                                         
 
    NODE      VOLT  
    2146  0.34077E-04
    2147  0.33600E-04
    2148  0.32173E-04
    2149  0.29142E-04
    2150  0.28698E-04
    2151  0.30735E-04
    2152  0.32459E-04
    2153  0.33780E-04
    2154  0.38569E-04
    2155  0.49323E-04
    2156  0.59812E-04
    2157  0.26568E-04
    2158  0.22289E-04
    2159  0.21913E-04
    2160  0.20600E-04
    2161  0.21191E-04
    2162  0.25494E-04
    2163  0.34880E-04
    2164  0.80237E-04
    2165  0.21043E-03
    2166  0.28089E-03
    2167  0.11824E-03
    2168  0.85871E-04
    2169  0.19191E-04
    2170  0.19779E-04
    2171  0.14834E-04
    2172  0.13536E-04
    2173  0.14083E-04
    2174  0.13528E-04
    2175  0.13481E-04
    2176  0.13324E-04
    2177  0.18282E-04
    2178  0.16331E-04
    2179  0.51227E-04
    2180  0.41898E-04
    2181  0.17282E-04
    2182  0.16706E-04
    2183  0.16069E-04
    2184  0.11366E-04
1

 ***** ANSYS - ENGINEERING ANALYSIS SYSTEM  RELEASE 15.0      *****
 ANSYS Academic Teaching Advanced                  
 00203145          VERSION=LINUX x64     15:15:32  APR 01, 2014 CP=     21.089

                                                                               

 
  ***** POST1 NODAL DEGREE OF FREEDOM LISTING *****                            
 
  LOAD STEP=     1  SUBSTEP=     1                                             
   TIME=    1.0000      LOAD CASE=   0                                         
 
    NODE      VOLT  
    2185  0.10685E-04
    2186  0.12085E-04
    2187  0.11384E-04
    2188  0.11123E-04
    2189  0.10721E-04
    2190  0.10445E-04
    2191  0.10635E-04
    2192  0.11203E-04
    2193  0.12334E-04
    2194  0.13929E-04
    2195  0.16710E-04
    2196  0.19018E-04
    2197  0.26033E-04
    2198  0.62267E-04
    2199  0.94506E-04
    2200  0.14791E-03
    2201  0.42144E-04
    2202  0.29775E-04
    2203  0.22855E-04
    2204  0.20487E-04
    2205  0.21208E-04
    2206  0.22862E-04
    2207  0.21534E-04
[...]
 
    NODE      VOLT  
   11545  0.21820E-02
   11546  0.21705E-02
   11547  0.22855E-02
   11548  0.34396E-02
   11549  0.22866E-02
   11550  0.31655E-02
   11551  0.22888E-02
   11552  0.15070E-03
   11553  0.12305E-01
   11554  0.57978E-02
   11555  0.40404E-02
   11556  0.58114E-02
   11557  0.37953E-02
   11558  0.20222E-02
   11559  0.20234E-02
   11560  0.50441E-02
   11561  0.66654E-02
   11562  0.76729E-02
   11563  0.20333E-02
   11564  0.24006E-02
   11565  0.63283E-02
   11566  0.62075E-02
   11567  0.50010E-02
   11568  0.68619E-03
   11569  0.77682E-03
   11570  0.69083E-03
   11571  0.80212E-04
   11572  0.14089E-03
   11573  0.16518E-03
   11574  0.10036E-03
   11575  0.10611E-03
   11576  0.19680E-03
   11577  0.18781E-03
   11578  0.41099E-03
   11579  0.12116E-03
   11580  0.51257E-04
   11581  0.76596E-04
   11582  0.14437E-04
   11583  0.10004E-04
1

 ***** ANSYS - ENGINEERING ANALYSIS SYSTEM  RELEASE 15.0      *****
 ANSYS Academic Teaching Advanced                  
 00203145          VERSION=LINUX x64     15:15:32  APR 01, 2014 CP=     21.267

                                                                               

 
  ***** POST1 NODAL DEGREE OF FREEDOM LISTING *****                            
 
  LOAD STEP=     1  SUBSTEP=     1                                             
   TIME=    1.0000      LOAD CASE=   0                                         
 
    NODE      VOLT  
   11584  0.45464E-05
   11585  0.73004E-05
   11586  0.11755E-04
   11587  0.54512E-05
   11588  0.22059E-03
   11589  0.15185E-03
   11590  0.19338E-03
   11591  0.16837E-03
   11592  0.28073E-03
   11593  0.15914E-03
   11594  0.39053E-03
   11595  0.25519E-02
   11596  0.40733E-02
   11597  0.24223E-02
   11598  0.16006E-02
   11599  0.42401E-02
   11600  0.25509E-02
   11601  0.16372E-02
   11602  0.17116E-02
   11603  0.31936E-05
   11604  0.99339E-03
   11605  0.12967E-04
   11606  0.87300E-03
   11607  0.45924E-01
   11608  0.80261E-03
   11609  0.86754E-03
   11610  0.57127E-05
   11611  0.16455E-02
   11612  0.30010E-02
   11613  0.16740E-02
   11614  0.17864E-02
   11615  0.18695E-02
   11616  0.31016E-02
   11617  0.12210E-02
   11618  0.14260E-02
   11619  0.73373E-03
   11620  0.72491E-03
   11621  0.10044E-02
   11622  0.72609E-03
1

 ***** ANSYS - ENGINEERING ANALYSIS SYSTEM  RELEASE 15.0      *****
 ANSYS Academic Teaching Advanced                  
 00203145          VERSION=LINUX x64     15:15:32  APR 01, 2014 CP=     21.268

                                                                               

 
  ***** POST1 NODAL DEGREE OF FREEDOM LISTING *****                            
 
  LOAD STEP=     1  SUBSTEP=     1                                             
   TIME=    1.0000      LOAD CASE=   0                                         
 
    NODE      VOLT  
   11623  0.70795E-03
   11624  0.78210E-03
   11625  0.13589E-02
   11626  0.11456E-02
   11627  0.80965E-03
   11628  0.76666E-03
   11629  0.87826E-03
   11630  0.67703E-03
   11631  0.93525E-03
   11632  0.16066E-02
   11633  0.17044E-02
   11634  0.12155E-02
   11635  0.15953E-02
   11636  0.71448E-03
   11637  0.10376E-02
   11638  0.77373E-03
   11639  0.14936E-02
   11640  0.12391E-02
   11641  0.27916E-02
   11642  0.15132E-02
   11643  0.19255E-02
   11644  0.17793E-02
   11645  0.12231E-02
   11646  0.16772E-02
   11647  0.12350E-02
   11648  0.12008E-02
   11649  0.84780E-03
   11650  0.95395E-03
   11651  0.88156E-03
   11652  0.26866E-05
   11653  0.12387E-05
   11654  0.28242E-05
   11655  0.35124E-05
   11656  0.28242E-05
   11657  0.35124E-05
   11658  0.26866E-05
   11659  0.12387E-05
   11660  0.53355E-05
   11661  0.35124E-05
1

 ***** ANSYS - ENGINEERING ANALYSIS SYSTEM  RELEASE 15.0      *****
 ANSYS Academic Teaching Advanced                  
 00203145          VERSION=LINUX x64     15:15:32  APR 01, 2014 CP=     21.269

                                                                               

 
  ***** POST1 NODAL DEGREE OF FREEDOM LISTING *****                            
 
  LOAD STEP=     1  SUBSTEP=     1                                             
   TIME=    1.0000      LOAD CASE=   0                                         
 
    NODE      VOLT  
   11662  0.35124E-05
   11663  0.12387E-05
   11664  0.57095E-05
   11665  0.53355E-05
   11666  0.67728E-05
   11667  0.28120E-04
   11668  0.10247E-04
   11669  0.31866E-05
   11670  0.32657E-05
   11671  0.36206E-05
   11672  0.14201E-04
   11673  0.92584E-05
   11674  0.44245E-02
   11675  0.10331E-01
   11676  0.26459E-02
   11677  0.23666E-02
   11678  0.20180E-02
   11679  0.43780E-02
   11680  0.23751E-02
   11681  0.20203E-02
   11682  0.38079E-02
   11683  0.20280E-02
   11684  0.83437E-02
   11685  0.56838E-02
   11686  0.20282E-02
   11687  0.20254E-02
   11688  0.38014E-02
   11689  0.20178E-02
   11690  0.30294E-02
   11691  0.20256E-02
   11692  0.30407E-02
   11693  0.30221E-02
   11694  0.23615E-02
   11695  0.18257E-02
   11696  0.88080E-03
   11697  0.12468E-02
   11698  0.14425E-02
   11699  0.48935E-02
   11700  0.25372E-02
1

 ***** ANSYS - ENGINEERING ANALYSIS SYSTEM  RELEASE 15.0      *****
 ANSYS Academic Teaching Advanced                  
 00203145          VERSION=LINUX x64     15:15:32  APR 01, 2014 CP=     21.269

                                                                               

 
  ***** POST1 NODAL DEGREE OF FREEDOM LISTING *****                            
 
  LOAD STEP=     1  SUBSTEP=     1                                             
   TIME=    1.0000      LOAD CASE=   0                                         
 
    NODE      VOLT  
   11701  0.23830E-02
   11702  0.23871E-02
   11703  0.44198E-02
   11704  0.24029E-02
   11705  0.20351E-02
   11706  0.66652E-02
   11707  0.46730E-02
   11708  0.14270E-02
   11709  0.24040E-02
   11710  0.20787E-02
   11711  0.20349E-02
   11712  0.11141E-02
   11713  0.17386E-02
   11714  0.46809E-05
   11715  0.10967E-03
   11716  0.45812E-04
   11717  0.73090E-04
   11718  0.31656E-04
   11719  0.26183E-05
   11720  0.78156E-03
   11721  0.70036E-03
   11722  0.57177E-03
   11723  0.93915E-03
   11724  0.91283E-03
   11725  0.30170E-02
   11726  0.96824E-03
   11727  0.93797E-03
   11728  0.27101E-02
   11729  0.12910E-02
   11730  0.16519E-03
   11731  0.25408E-03
   11732  0.13641E-02
   11733  0.12056E-02
   11734  0.74576E-03
   11735  0.21757E-03
   11736  0.24589E-03
   11737  0.25555E-03
   11738  0.14408E-01
   11739  0.41106E-02
1

 ***** ANSYS - ENGINEERING ANALYSIS SYSTEM  RELEASE 15.0      *****
 ANSYS Academic Teaching Advanced                  
 00203145          VERSION=LINUX x64     15:15:32  APR 01, 2014 CP=     21.270

                                                                               

 
  ***** POST1 NODAL DEGREE OF FREEDOM LISTING *****                            
 
  LOAD STEP=     1  SUBSTEP=     1                                             
   TIME=    1.0000      LOAD CASE=   0                                         
 
    NODE      VOLT  
   11740  0.19032E-02
   11741  0.22651E-02
   11742  0.99408E-03
   11743  0.17023E-02
   11744  0.37207E-02
   11745  0.37471E-02
   11746  0.24654E-02
   11747  0.32653E-02
   11748  0.42194E-02
   11749  0.11648E-01
   11750  0.41077E-02
   11751  0.42393E-02
   11752  0.22933E-02
   11753  0.20732E-02
   11754  0.20792E-02
   11755  0.79860E-02
   11756  0.43369E-04
   11757  0.12621E-03
   11758  0.77973E-04
   11759  0.83399E-04
   11760  0.76564E-04
   11761  0.45466E-04
   11762  0.32347E-04
   11763  0.32443E-04
   11764  0.51548E-04
   11765  0.97472E-04
   11766  0.10837E-03
   11767  0.16070E-03
   11768  0.11857E-02
   11769  0.12468E-02
   11770  0.90633E-03
   11771  0.86119E-03
   11772  0.20801E-02
   11773  0.14575E-02
   11774  0.24601E-02
   11775  0.38239E-02
   11776  0.24557E-02
   11777  0.16406E-02
   11778  0.20760E-02
1

 ***** ANSYS - ENGINEERING ANALYSIS SYSTEM  RELEASE 15.0      *****
 ANSYS Academic Teaching Advanced                  
 00203145          VERSION=LINUX x64     15:15:32  APR 01, 2014 CP=     21.271

                                                                               

 
  ***** POST1 NODAL DEGREE OF FREEDOM LISTING *****                            
 
  LOAD STEP=     1  SUBSTEP=     1                                             
   TIME=    1.0000      LOAD CASE=   0                                         
 
    NODE      VOLT  
   11779  0.32375E-02
   11780  0.98427    
   11781  0.21699E-02
   11782  0.20816E-02
   11783  0.20375E-02
   11784  0.32544E-02
   11785  0.18502E-02
   11786  0.32214E-02
   11787  0.36199E-02
   11788  0.35444E-02
   11789  0.37158E-02
   11790  0.56552E-02
   11791  0.81227E-02
   11792  0.54767E-02
   11793  0.29864E-02
   11794  0.26210E-02
   11795  0.37584E-02
   11796  0.43973E-02
   11797  0.65555E-02
   11798  0.29116E-02
   11799  0.26180E-02
   11800  0.93120E-04
   11801  0.71625E-04
   11802  0.54430E-04
   11803  0.58372E-04
   11804  0.52666E-04
   11805  0.49617E-04
   11806  0.31399E-02
   11807  0.20856E-02
   11808  0.20679E-02
   11809  0.70936E-02
   11810  0.51932E-02
   11811  0.87941E-02
   11812  0.96966E-02
   11813  0.13865E-01
   11814  0.13489E-01
   11815  0.21887E-02
   11816  0.58723E-02
   11817  0.14501E-01
1

 ***** ANSYS - ENGINEERING ANALYSIS SYSTEM  RELEASE 15.0      *****
 ANSYS Academic Teaching Advanced                  
 00203145          VERSION=LINUX x64     15:15:32  APR 01, 2014 CP=     21.271

                                                                               

 
  ***** POST1 NODAL DEGREE OF FREEDOM LISTING *****                            
 
  LOAD STEP=     1  SUBSTEP=     1                                             
   TIME=    1.0000      LOAD CASE=   0                                         
 
    NODE      VOLT  
   11818  0.56578E-02
   11819  0.80395E-02
   11820  0.47173E-02
   11821  0.20563E-02
   11822  0.20625E-02
   11823  0.20831E-02
   11824  0.21766E-02
   11825  0.77773E-02
   11826  0.26391E-02
   11827  0.17167E-02
   11828  0.16397E-02
   11829  0.14465E-02
   11830  0.28914E-02
   11831  0.25924E-02
   11832  0.12465E-02
   11833  0.94175E-03
   11834  0.13189E-02
   11835  0.12683E-02
   11836  0.77893E-03
   11837  0.20596E-02
   11838  0.12639E-03
   11839  0.13835E-03
   11840  0.10447E-03
   11841  0.11823E-03
   11842  0.18566E-02
   11843  0.13448E-02
   11844  0.11646E-02
   11845  0.90352E-03
   11846  0.11837E-01
   11847  0.12145E-02
   11848  0.30271E-02
   11849  0.47906E-02
   11850  0.58272E-02
   11851  0.83540E-03
   11852  0.38849E-02
   11853  0.19944E-02
   11854  0.18543E-02
   11855  0.51274E-02
   11856  0.31500E-02
1

 ***** ANSYS - ENGINEERING ANALYSIS SYSTEM  RELEASE 15.0      *****
 ANSYS Academic Teaching Advanced                  
 00203145          VERSION=LINUX x64     15:15:32  APR 01, 2014 CP=     21.272

                                                                               

 
  ***** POST1 NODAL DEGREE OF FREEDOM LISTING *****                            
 
  LOAD STEP=     1  SUBSTEP=     1                                             
   TIME=    1.0000      LOAD CASE=   0                                         
 
    NODE      VOLT  
   11857  0.85722E-02
   11858  0.11115E-02
   11859  0.10348E-02
   11860  0.54420E-04
   11861  0.60333E-04
   11862  0.98427    
   11863  0.98427    
   11864  0.97553    
   11865  0.98602    
   11866  0.31762E-02
   11867  0.10507E-04
   11868  0.52517    
   11869  0.50202    
   11870  0.47496    
   11871  0.31601E-02
   11872  0.15076E-04
   11873  0.10866E-02
   11874  0.94189    
   11875  0.96504    
   11876  0.89168    
   11877  0.55053E-06
   11878  0.68816E-06
   11879  0.30739E-02
   11880  0.32031E-02
   11881  0.30726E-02
   11882  0.23351E-04
   11883  0.18812E-02
   11884  0.42866    
   11885  0.45181    
   11886  0.26701E-02
   11887  0.60646E-02
   11888  0.26404E-02
   11889  0.28608E-02
   11890  0.26942E-02
   11891  0.13745E-02
   11892  0.18983E-04
   11893  0.40251E-04
   11894  0.88035E-05
   11895  0.14224E-04
1

 ***** ANSYS - ENGINEERING ANALYSIS SYSTEM  RELEASE 15.0      *****
 ANSYS Academic Teaching Advanced                  
 00203145          VERSION=LINUX x64     15:15:32  APR 01, 2014 CP=     21.273

                                                                               

 
  ***** POST1 NODAL DEGREE OF FREEDOM LISTING *****                            
 
  LOAD STEP=     1  SUBSTEP=     1                                             
   TIME=    1.0000      LOAD CASE=   0                                         
 
    NODE      VOLT  
   11896  0.79618E-05
   11897  0.18354E-04
   11898  0.10344E-02
   11899  0.13545E-02
   11900  0.22619    
   11901  0.24493    
   11902  0.24934    
   11903  0.24637    
   11904  0.20900    
   11905  0.23690E-02
   11906  0.77983    
   11907  0.20461E-02
   11908  0.20417E-02
   11909  0.13693E-04
   11910  0.87395E-05
   11911  0.10824E-04
   11912  0.26155E-02
   11913  0.20738E-02
   11914  0.79787E-04
   11915  0.86853    
   11916  0.84538    
   11917  0.55053E-06
   11918  0.22445E-04
   11919  0.55053E-06
   11920  0.82614    
   11921  0.80299    
   11922  0.73353    
   11923  0.18154E-03
   11924  0.18920E-03
   11925  0.11011E-05
   11926  0.55053E-06
   11927  0.68816E-06
   11928  0.20721E-02
   11929  0.74284E-04
   11930  0.40544E-04
   11931  0.63306E-04
   11932  0.46096E-04
   11933  0.41937E-04
   11934  0.10980E-03
1

 ***** ANSYS - ENGINEERING ANALYSIS SYSTEM  RELEASE 15.0      *****
 ANSYS Academic Teaching Advanced                  
 00203145          VERSION=LINUX x64     15:15:32  APR 01, 2014 CP=     21.274

                                                                               

 
  ***** POST1 NODAL DEGREE OF FREEDOM LISTING *****                            
 
  LOAD STEP=     1  SUBSTEP=     1                                             
   TIME=    1.0000      LOAD CASE=   0                                         
 
    NODE      VOLT  
   11935  0.55188E-04
   11936  0.37120E-04
   11937  0.10932E-03
   11938  0.95650E-05
   11939  0.91293E-05
   11940  0.62426E-05
   11941  0.99619E-05
   11942  0.51924E-02
   11943  0.28975    
   11944  0.31290    
   11945  0.26660    
   11946  0.20230E-02
   11947  0.11330E-02
   11948  0.18591E-02
   11949  0.18810E-04
   11950  0.17386E-04
   11951  0.16298E-04
   11952  0.38235    
   11953  0.35920    
   11954  0.33605    
   11955  0.56104E-05
   11956  0.47367E-02
   11957  0.51930E-02
   11958  0.14782E-03
   11959  0.20755E-02
   11960  0.29489E-02
   11961  0.35353E-05
   11962  0.39440E-05
   11963  0.62581E-05
   11964  0.61178E-05
   11965  0.32495E-05
   11966  0.11732E-04
   11967  0.62310E-05
   11968  0.97784E-01
   11969  0.11531    
   11970  0.25819E-04
   11971  0.47616E-02
   11972  0.28089E-02
   11973  0.18591    
1

 ***** ANSYS - ENGINEERING ANALYSIS SYSTEM  RELEASE 15.0      *****
 ANSYS Academic Teaching Advanced                  
 00203145          VERSION=LINUX x64     15:15:32  APR 01, 2014 CP=     21.274

                                                                               

 
  ***** POST1 NODAL DEGREE OF FREEDOM LISTING *****                            
 
  LOAD STEP=     1  SUBSTEP=     1                                             
   TIME=    1.0000      LOAD CASE=   0                                         
 
    NODE      VOLT  
   11974  0.26329E-02
   11975  0.70964E-02
   11976  0.20785E-02
   11977  0.14976    
   11978  0.16277    
   11979  0.13487    
   11980  0.12810    
   11981  0.18365E-03
   11982  0.22178    
   11983  0.23010    
   11984  0.37808E-02
   11985  0.37559E-02
   11986  0.29142E-02
   11987  0.14218E-03
   11988  0.28124E-02
   11989  0.13877E-02
   11990  0.14198E-02
   11991  0.30645E-02
   11992  0.32259E-02
   11993  0.28389E-02
   11994  0.19443E-04
   11995  0.97553    
   11996  0.99301    
   11997  0.99301    
   11998  0.66408    
   11999  0.99301    
   12000  0.99207E-02
   12001  0.11306E-02
   12002  0.98700E-03
   12003  0.10749E-02
   12004  0.12857E-04
   12005  0.40563E-04
   12006  0.53355E-05
   12007  0.99126    
   12008  0.98427    
   12009  0.99301    
   12010  0.68723    
   12011  0.52114E-04
   12012  0.46528E-04
1

 ***** ANSYS - ENGINEERING ANALYSIS SYSTEM  RELEASE 15.0      *****
 ANSYS Academic Teaching Advanced                  
 00203145          VERSION=LINUX x64     15:15:32  APR 01, 2014 CP=     21.275

                                                                               

 
  ***** POST1 NODAL DEGREE OF FREEDOM LISTING *****                            
 
  LOAD STEP=     1  SUBSTEP=     1                                             
   TIME=    1.0000      LOAD CASE=   0                                         
 
    NODE      VOLT  
   12013  0.39530E-04
   12014  0.33195E-04
   12015  0.60321E-05
   12016  0.61368E-05
   12017  0.24166E-02
   12018  0.86977E-04
   12019  0.26560E-04
   12020  0.28591E-04
   12021  0.40550    
   12022  0.21413E-03
   12023  0.43976E-05
   12024  0.76275E-05
   12025  0.37223E-02
   12026  0.36824E-02
   12027  0.86782E-02
   12028  0.10029E-03
   12029  0.52213E-03
   12030  0.11899E-02
   12031  0.11107E-02
   12032  0.10355E-04
   12033  0.24663E-05
   12034  0.66057E-05
   12035  0.68830E-03
   12036  0.83637E-03
   12037  0.36520E-02
   12038  0.19158E-02
   12039  0.20265E-02
   12040  0.46158E-02
   12041  0.10407E-02
   12042  0.98923E-01
   12043  0.10478E-02
   12044  0.25325    
   12045  0.41695E-04
   12046  0.30784E-04
   12047  0.53719E-03
   12048  0.22919E-04
   12049  0.18160E-04
   12050  0.19729E-04
   12051  0.21357E-04
1

 ***** ANSYS - ENGINEERING ANALYSIS SYSTEM  RELEASE 15.0      *****
 ANSYS Academic Teaching Advanced                  
 00203145          VERSION=LINUX x64     15:15:32  APR 01, 2014 CP=     21.276

                                                                               

 
  ***** POST1 NODAL DEGREE OF FREEDOM LISTING *****                            
 
  LOAD STEP=     1  SUBSTEP=     1                                             
   TIME=    1.0000      LOAD CASE=   0                                         
 
    NODE      VOLT  
   12052  0.14403E-02
   12053  0.18839E-02
   12054  0.20217E-02
   12055  0.37048E-02
   12056  0.32441E-03
   12057  0.14529E-02
   12058  0.76049E-03
   12059  0.20340E-02
   12060  0.88265E-03
   12061  0.12926E-02
   12062  0.96208E-03
   12063  0.14879E-02
   12064  0.12545E-02
   12065  0.54951E-03
   12066  0.17072E-04
   12067  0.22322    
   12068  0.12207    
   12069  0.12123E-02
   12070  0.75668    
   12071  0.71038    
   12072  0.75467E-03
   12073  0.10045E-04
   12074  0.11868E-04
   12075  0.13691E-04
   12076  0.76599E-03
   12077  0.25032E-02
   12078  0.30190E-04
   12079  0.83271E-03
   12080  0.13688E-02
   12081  0.22292E-02
   12082  0.12442E-02
   12083  0.46928E-02
   12084  0.20298E-02
   12085  0.25908E-02
   12086  0.26741E-02
   12087  0.25000E-04
   12088  0.15249E-04
   12089  0.14875E-04
   12090  0.54832    
1

 ***** ANSYS - ENGINEERING ANALYSIS SYSTEM  RELEASE 15.0      *****
 ANSYS Academic Teaching Advanced                  
 00203145          VERSION=LINUX x64     15:15:32  APR 01, 2014 CP=     21.276

                                                                               

 
  ***** POST1 NODAL DEGREE OF FREEDOM LISTING *****                            
 
  LOAD STEP=     1  SUBSTEP=     1                                             
   TIME=    1.0000      LOAD CASE=   0                                         
 
    NODE      VOLT  
   12091  0.99126    
   12092  0.91874    
   12093  0.57147    
   12094  0.59463    
   12095  0.40701E-02
   12096  0.12387E-05
   12097  0.85958E-05

 MAXIMUM ABSOLUTE VALUES
 NODE         21
 VALUE    1.0000    
